ligand_1
     RDKit          3D

 34 37  0  0  0  0  0  0  0  0999 V2000
   24.4499   54.0075   31.7741 O   0  0  0  0  0  0  0  0  0  0  0  0
   25.0824   52.9407   31.6170 C   0  0  0  0  0  0  0  0  0  0  0  0
   24.9132   51.8167   32.3915 C   0  0  0  0  0  0  0  0  0  0  0  0
   23.9595   51.8116   33.4928 C   0  0  0  0  0  0  0  0  0  0  0  0
   22.5390   51.9296   33.1226 C   0  0  0  0  0  0  0  0  0  0  0  0
   21.7461   53.0303   33.3276 C   0  0  0  0  0  0  0  0  0  0  0  0
   20.4305   52.9706   32.9014 C   0  0  0  0  0  0  0  0  0  0  0  0
   19.8733   51.8790   32.2887 C   0  0  0  0  0  0  0  0  0  0  0  0
   20.6621   50.7665   32.0769 C   0  0  0  0  0  0  0  0  0  0  0  0
   21.9721   50.8085   32.4937 C   0  0  0  0  0  0  0  0  0  0  0  0
   25.6621   50.6876   32.1374 C   0  0  0  0  0  0  0  0  0  0  0  0
   25.4967   49.5186   32.9819 C   0  0  0  0  0  0  0  0  0  0  0  0
   25.9761   48.1957   32.4502 C   0  0  0  0  0  0  0  0  0  0  0  0
   26.6311   48.8740   33.6877 C   0  0  0  0  0  0  0  0  0  0  0  0
   26.5527   50.6944   31.1319 N   0  0  0  0  0  0  0  0  0  0  0  0
   26.7143   51.8192   30.3659 C   0  0  0  0  0  0  0  0  0  0  0  0
   27.5463   52.0319   29.3216 N   0  0  0  0  0  0  0  0  0  0  0  0
   27.3080   53.3002   28.9307 C   0  0  0  0  0  0  0  0  0  0  0  0
   26.3612   53.8333   29.7174 N   0  0  0  0  0  0  0  0  0  0  0  0
   25.9954   52.9210   30.6009 N   0  0  0  0  0  0  0  0  0  0  0  0
   19.9724   49.3617   31.2945 Cl  0  0  0  0  0  0  0  0  0  0  0  0
   24.0342   50.8976   34.1306 H   0  0  0  0  0  0  0  0  0  0  0  0
   24.2139   52.6537   34.1728 H   0  0  0  0  0  0  0  0  0  0  0  0
   22.1554   53.8985   33.8053 H   0  0  0  0  0  0  0  0  0  0  0  0
   19.8280   53.8430   33.0713 H   0  0  0  0  0  0  0  0  0  0  0  0
   18.8324   51.8969   31.9787 H   0  0  0  0  0  0  0  0  0  0  0  0
   22.5494   49.9112   32.2952 H   0  0  0  0  0  0  0  0  0  0  0  0
   24.5170   49.4521   33.5011 H   0  0  0  0  0  0  0  0  0  0  0  0
   26.6094   48.0941   31.5675 H   0  0  0  0  0  0  0  0  0  0  0  0
   25.3879   47.2709   32.7388 H   0  0  0  0  0  0  0  0  0  0  0  0
   27.6763   49.1699   33.5216 H   0  0  0  0  0  0  0  0  0  0  0  0
   26.4268   48.4290   34.6714 H   0  0  0  0  0  0  0  0  0  0  0  0
   27.1532   49.8848   30.8713 H   0  0  0  0  0  0  0  0  0  0  0  0
   27.8089   53.7841   28.1180 H   0  0  0  0  0  0  0  0  0  0  0  0
  1  2  2  0
  2  3  1  0
  2 20  1  0
  3  4  1  0
  3 11  2  0
  4  5  1  0
  4 22  1  0
  4 23  1  0
  5  6  2  0
  5 10  1  0
  6  7  1  0
  6 24  1  0
  7  8  2  0
  7 25  1  0
  8  9  1  0
  8 26  1  0
  9 10  2  0
  9 21  1  0
 10 27  1  0
 11 12  1  0
 11 15  1  0
 12 13  1  0
 12 14  1  0
 12 28  1  0
 13 14  1  0
 13 29  1  0
 13 30  1  0
 14 31  1  0
 14 32  1  0
 15 16  1  0
 15 33  1  0
 16 17  2  0
 16 20  1  0
 17 18  1  0
 18 19  2  0
 18 34  1  0
 19 20  1  0
M  END
>  <CRASH_ATOM_PAIR>  (1) 
0

>  <pdb_header>  (1) 


$$$$
ligand_10
     RDKit          3D

 39 42  0  0  0  0  0  0  0  0999 V2000
   24.5690   54.1228   31.8981 O   0  0  0  0  0  0  0  0  0  0  0  0
   25.1848   53.0593   31.6292 C   0  0  0  0  0  0  0  0  0  0  0  0
   24.9075   51.9667   32.4691 C   0  0  0  0  0  0  0  0  0  0  0  0
   23.9277   52.1039   33.5606 C   0  0  0  0  0  0  0  0  0  0  0  0
   22.5450   51.9289   33.1189 C   0  0  0  0  0  0  0  0  0  0  0  0
   22.1280   50.8315   32.4199 C   0  0  0  0  0  0  0  0  0  0  0  0
   20.7989   50.6923   32.0052 C   0  0  0  0  0  0  0  0  0  0  0  0
   19.8740   51.6635   32.2949 C   0  0  0  0  0  0  0  0  0  0  0  0
   20.2730   52.7998   33.0120 C   0  0  0  0  0  0  0  0  0  0  0  0
   19.2838   53.8527   33.3300 C   0  0  0  0  0  0  0  0  0  0  0  0
   21.5823   52.8873   33.3926 C   0  0  0  0  0  0  0  0  0  0  0  0
   25.5574   50.8075   32.1987 C   0  0  0  0  0  0  0  0  0  0  0  0
   25.4127   49.6010   33.0863 C   0  0  0  0  0  0  0  0  0  0  0  0
   25.6965   48.2658   32.4435 C   0  0  0  0  0  0  0  0  0  0  0  0
   26.7492   48.8472   33.2769 C   0  0  0  0  0  0  0  0  0  0  0  0
   26.4474   50.6941   31.1522 N   0  0  0  0  0  0  0  0  0  0  0  0
   26.6757   51.7769   30.3822 C   0  0  0  0  0  0  0  0  0  0  0  0
   27.4922   51.9619   29.3048 N   0  0  0  0  0  0  0  0  0  0  0  0
   27.3724   53.2450   28.8745 C   0  0  0  0  0  0  0  0  0  0  0  0
   28.0450   53.8588   27.7881 N   0  0  0  0  0  0  0  0  0  0  0  0
   26.4736   53.8087   29.7162 N   0  0  0  0  0  0  0  0  0  0  0  0
   26.0548   52.9461   30.6111 N   0  0  0  0  0  0  0  0  0  0  0  0
   19.9176   54.8718   34.0318 F   0  0  0  0  0  0  0  0  0  0  0  0
   18.2990   53.3510   34.1670 F   0  0  0  0  0  0  0  0  0  0  0  0
   18.7400   54.4393   32.1828 F   0  0  0  0  0  0  0  0  0  0  0  0
   24.2328   51.5213   34.4366 H   0  0  0  0  0  0  0  0  0  0  0  0
   24.0662   53.1904   33.9270 H   0  0  0  0  0  0  0  0  0  0  0  0
   22.7962   50.0256   32.1541 H   0  0  0  0  0  0  0  0  0  0  0  0
   20.4714   49.8266   31.4463 H   0  0  0  0  0  0  0  0  0  0  0  0
   18.8405   51.6195   32.0050 H   0  0  0  0  0  0  0  0  0  0  0  0
   21.8738   53.7758   33.9457 H   0  0  0  0  0  0  0  0  0  0  0  0
   24.7711   49.6572   33.9686 H   0  0  0  0  0  0  0  0  0  0  0  0
   25.8023   48.1542   31.3610 H   0  0  0  0  0  0  0  0  0  0  0  0
   25.0518   47.4382   32.8615 H   0  0  0  0  0  0  0  0  0  0  0  0
   26.9479   48.4707   34.2819 H   0  0  0  0  0  0  0  0  0  0  0  0
   27.6479   49.2807   32.7452 H   0  0  0  0  0  0  0  0  0  0  0  0
   26.9471   49.8061   30.9766 H   0  0  0  0  0  0  0  0  0  0  0  0
   29.0826   53.9278   27.8036 H   0  0  0  0  0  0  0  0  0  0  0  0
   27.5505   54.2471   26.9590 H   0  0  0  0  0  0  0  0  0  0  0  0
  1  2  2  0
  2  3  1  0
  2 22  1  0
  3  4  1  0
  3 12  2  0
  4  5  1  0
  4 26  1  0
  4 27  1  0
  5  6  2  0
  5 11  1  0
  6  7  1  0
  6 28  1  0
  7  8  2  0
  7 29  1  0
  8  9  1  0
  8 30  1  0
  9 10  1  0
  9 11  2  0
 10 23  1  0
 10 24  1  0
 10 25  1  0
 11 31  1  0
 12 13  1  0
 12 16  1  0
 13 14  1  0
 13 15  1  0
 13 32  1  0
 14 15  1  0
 14 33  1  0
 14 34  1  0
 15 35  1  0
 15 36  1  0
 16 17  1  0
 16 37  1  0
 17 18  2  0
 17 22  1  0
 18 19  1  0
 19 20  1  0
 19 21  2  0
 20 38  1  0
 20 39  1  0
 21 22  1  0
M  END
>  <CRASH_ATOM_PAIR>  (2) 
0

>  <pdb_header>  (2) 


$$$$
ligand_11
     RDKit          3D

 36 39  0  0  0  0  0  0  0  0999 V2000
   24.5767   54.1803   31.8797 O   0  0  0  0  0  0  0  0  0  0  0  0
   25.1548   53.0783   31.6907 C   0  0  0  0  0  0  0  0  0  0  0  0
   24.9512   52.0089   32.4933 C   0  0  0  0  0  0  0  0  0  0  0  0
   24.0305   52.0246   33.6397 C   0  0  0  0  0  0  0  0  0  0  0  0
   22.6072   51.8924   33.1708 C   0  0  0  0  0  0  0  0  0  0  0  0
   21.7249   52.9487   33.2250 C   0  0  0  0  0  0  0  0  0  0  0  0
   20.4561   52.8294   32.7365 C   0  0  0  0  0  0  0  0  0  0  0  0
   20.0369   51.6378   32.1764 C   0  0  0  0  0  0  0  0  0  0  0  0
   20.9128   50.5919   32.1250 C   0  0  0  0  0  0  0  0  0  0  0  0
   22.1965   50.6950   32.6146 C   0  0  0  0  0  0  0  0  0  0  0  0
   25.6247   50.8113   32.2353 C   0  0  0  0  0  0  0  0  0  0  0  0
   25.3349   49.6295   33.0853 C   0  0  0  0  0  0  0  0  0  0  0  0
   26.3462   48.6258   33.5086 C   0  0  0  0  0  0  0  0  0  0  0  0
   25.6708   48.3450   32.2216 C   0  0  0  0  0  0  0  0  0  0  0  0
   26.4457   50.7700   31.1952 N   0  0  0  0  0  0  0  0  0  0  0  0
   26.6504   51.8694   30.3836 C   0  0  0  0  0  0  0  0  0  0  0  0
   27.4341   51.9853   29.3112 N   0  0  0  0  0  0  0  0  0  0  0  0
   27.2822   53.2444   28.8717 C   0  0  0  0  0  0  0  0  0  0  0  0
   27.9107   53.8724   27.7249 N   0  0  0  0  0  0  0  0  0  0  0  0
   26.4074   53.8338   29.7059 N   0  0  0  0  0  0  0  0  0  0  0  0
   26.0124   52.9945   30.6400 N   0  0  0  0  0  0  0  0  0  0  0  0
   18.2723   51.4549   31.4584 Br  0  0  0  0  0  0  0  0  0  0  0  0
   24.2182   51.2173   34.3946 H   0  0  0  0  0  0  0  0  0  0  0  0
   24.1002   53.0100   34.1409 H   0  0  0  0  0  0  0  0  0  0  0  0
   22.0837   53.8669   33.6703 H   0  0  0  0  0  0  0  0  0  0  0  0
   19.7559   53.6649   32.7796 H   0  0  0  0  0  0  0  0  0  0  0  0
   20.5708   49.6505   31.6788 H   0  0  0  0  0  0  0  0  0  0  0  0
   22.8773   49.8324   32.5561 H   0  0  0  0  0  0  0  0  0  0  0  0
   24.3040   49.5680   33.4510 H   0  0  0  0  0  0  0  0  0  0  0  0
   26.0469   48.0022   34.3685 H   0  0  0  0  0  0  0  0  0  0  0  0
   27.4193   48.9034   33.5403 H   0  0  0  0  0  0  0  0  0  0  0  0
   24.9022   47.5758   32.1402 H   0  0  0  0  0  0  0  0  0  0  0  0
   26.2914   48.4504   31.3225 H   0  0  0  0  0  0  0  0  0  0  0  0
   26.9719   49.8909   30.8992 H   0  0  0  0  0  0  0  0  0  0  0  0
   28.2299   54.8493   27.8079 H   0  0  0  0  0  0  0  0  0  0  0  0
   28.0163   53.3369   26.8593 H   0  0  0  0  0  0  0  0  0  0  0  0
  1  2  2  0
  2  3  1  0
  2 21  1  0
  3  4  1  0
  3 11  2  0
  4  5  1  0
  4 23  1  0
  4 24  1  0
  5  6  2  0
  5 10  1  0
  6  7  1  0
  6 25  1  0
  7  8  2  0
  7 26  1  0
  8  9  1  0
  8 22  1  0
  9 10  2  0
  9 27  1  0
 10 28  1  0
 11 12  1  0
 11 15  1  0
 12 13  1  0
 12 14  1  0
 12 29  1  0
 13 14  1  0
 13 30  1  0
 13 31  1  0
 14 32  1  0
 14 33  1  0
 15 16  1  0
 15 34  1  0
 16 17  2  0
 16 21  1  0
 17 18  1  0
 18 19  1  0
 18 20  2  0
 19 35  1  0
 19 36  1  0
 20 21  1  0
M  END
>  <CRASH_ATOM_PAIR>  (3) 
0

>  <pdb_header>  (3) 


$$$$
ligand_2
     RDKit          3D

 37 40  0  0  0  0  0  0  0  0999 V2000
   24.4833   53.9873   31.8648 O   0  0  0  0  0  0  0  0  0  0  0  0
   25.0933   52.9178   31.6327 C   0  0  0  0  0  0  0  0  0  0  0  0
   24.8702   51.7747   32.3947 C   0  0  0  0  0  0  0  0  0  0  0  0
   23.9883   51.8025   33.5652 C   0  0  0  0  0  0  0  0  0  0  0  0
   22.5805   51.8954   33.1386 C   0  0  0  0  0  0  0  0  0  0  0  0
   21.8134   53.0273   33.2068 C   0  0  0  0  0  0  0  0  0  0  0  0
   20.5080   53.0603   32.7724 C   0  0  0  0  0  0  0  0  0  0  0  0
   19.9361   51.9047   32.2416 C   0  0  0  0  0  0  0  0  0  0  0  0
   20.6629   50.7494   32.1506 C   0  0  0  0  0  0  0  0  0  0  0  0
   21.9470   50.7544   32.5906 C   0  0  0  0  0  0  0  0  0  0  0  0
   25.5721   50.6454   32.0852 C   0  0  0  0  0  0  0  0  0  0  0  0
   25.3659   49.4376   32.9436 C   0  0  0  0  0  0  0  0  0  0  0  0
   26.2349   48.2006   32.4845 C   0  0  0  0  0  0  0  0  0  0  0  0
   26.5584   48.9819   33.7423 C   0  0  0  0  0  0  0  0  0  0  0  0
   26.4431   50.6630   31.0754 N   0  0  0  0  0  0  0  0  0  0  0  0
   26.6419   51.8001   30.3450 C   0  0  0  0  0  0  0  0  0  0  0  0
   27.4723   52.0635   29.3023 N   0  0  0  0  0  0  0  0  0  0  0  0
   27.3173   53.3731   28.9252 C   0  0  0  0  0  0  0  0  0  0  0  0
   28.0826   54.0436   27.8181 C   0  0  0  0  0  0  0  0  0  0  0  0
   26.3958   53.8681   29.7497 N   0  0  0  0  0  0  0  0  0  0  0  0
   25.9875   52.9301   30.6010 N   0  0  0  0  0  0  0  0  0  0  0  0
   19.9674   49.3079   31.4815 Cl  0  0  0  0  0  0  0  0  0  0  0  0
   24.0729   50.8290   34.1080 H   0  0  0  0  0  0  0  0  0  0  0  0
   24.2369   52.6330   34.2524 H   0  0  0  0  0  0  0  0  0  0  0  0
   22.2320   53.9504   33.6267 H   0  0  0  0  0  0  0  0  0  0  0  0
   19.8678   53.9485   32.8207 H   0  0  0  0  0  0  0  0  0  0  0  0
   18.9339   51.9309   31.9091 H   0  0  0  0  0  0  0  0  0  0  0  0
   22.5840   49.8644   32.5466 H   0  0  0  0  0  0  0  0  0  0  0  0
   24.3520   49.1517   33.1550 H   0  0  0  0  0  0  0  0  0  0  0  0
   26.8350   48.3674   31.5889 H   0  0  0  0  0  0  0  0  0  0  0  0
   25.7831   47.2189   32.5485 H   0  0  0  0  0  0  0  0  0  0  0  0
   27.4723   49.6314   33.6433 H   0  0  0  0  0  0  0  0  0  0  0  0
   26.4872   48.4310   34.6787 H   0  0  0  0  0  0  0  0  0  0  0  0
   26.9651   49.8171   30.8084 H   0  0  0  0  0  0  0  0  0  0  0  0
   28.9678   53.3942   27.5402 H   0  0  0  0  0  0  0  0  0  0  0  0
   27.4750   54.2328   26.9154 H   0  0  0  0  0  0  0  0  0  0  0  0
   28.4315   55.0328   28.1986 H   0  0  0  0  0  0  0  0  0  0  0  0
  1  2  2  0
  2  3  1  0
  2 21  1  0
  3  4  1  0
  3 11  2  0
  4  5  1  0
  4 23  1  0
  4 24  1  0
  5  6  2  0
  5 10  1  0
  6  7  1  0
  6 25  1  0
  7  8  2  0
  7 26  1  0
  8  9  1  0
  8 27  1  0
  9 10  2  0
  9 22  1  0
 10 28  1  0
 11 12  1  0
 11 15  1  0
 12 13  1  0
 12 14  1  0
 12 29  1  0
 13 14  1  0
 13 30  1  0
 13 31  1  0
 14 32  1  0
 14 33  1  0
 15 16  1  0
 15 34  1  0
 16 17  2  0
 16 21  1  0
 17 18  1  0
 18 19  1  0
 18 20  2  0
 19 35  1  0
 19 36  1  0
 19 37  1  0
 20 21  1  0
M  END
>  <CRASH_ATOM_PAIR>  (4) 
0

>  <pdb_header>  (4) 


$$$$
ligand_3
     RDKit          3D

 36 39  0  0  0  0  0  0  0  0999 V2000
   24.2327   53.8619   31.3965 O   0  0  0  0  0  0  0  0  0  0  0  0
   25.0030   52.8341   31.3284 C   0  0  0  0  0  0  0  0  0  0  0  0
   24.8259   51.7429   32.1009 C   0  0  0  0  0  0  0  0  0  0  0  0
   23.9242   51.7002   33.2243 C   0  0  0  0  0  0  0  0  0  0  0  0
   22.5163   51.8069   32.9940 C   0  0  0  0  0  0  0  0  0  0  0  0
   21.7445   50.7650   32.5342 C   0  0  0  0  0  0  0  0  0  0  0  0
   20.3672   50.8184   32.4434 C   0  0  0  0  0  0  0  0  0  0  0  0
   19.6785   51.9457   32.8136 C   0  0  0  0  0  0  0  0  0  0  0  0
   20.4191   53.0044   33.2753 C   0  0  0  0  0  0  0  0  0  0  0  0
   21.8079   52.9700   33.3765 C   0  0  0  0  0  0  0  0  0  0  0  0
   25.7063   50.6421   31.9648 C   0  0  0  0  0  0  0  0  0  0  0  0
   25.3534   49.4607   32.7491 C   0  0  0  0  0  0  0  0  0  0  0  0
   25.9566   48.8109   33.8938 C   0  0  0  0  0  0  0  0  0  0  0  0
   26.6514   48.4931   32.6717 C   0  0  0  0  0  0  0  0  0  0  0  0
   26.6721   50.7244   31.0922 N   0  0  0  0  0  0  0  0  0  0  0  0
   26.8521   51.8397   30.3137 C   0  0  0  0  0  0  0  0  0  0  0  0
   27.7636   52.1750   29.4208 N   0  0  0  0  0  0  0  0  0  0  0  0
   27.5362   53.3988   28.9684 C   0  0  0  0  0  0  0  0  0  0  0  0
   28.3009   54.1619   28.0258 N   0  0  0  0  0  0  0  0  0  0  0  0
   26.4259   53.8336   29.6202 N   0  0  0  0  0  0  0  0  0  0  0  0
   26.0292   52.8792   30.4274 N   0  0  0  0  0  0  0  0  0  0  0  0
   19.6057   54.4760   33.7864 Cl  0  0  0  0  0  0  0  0  0  0  0  0
   24.1985   52.5979   33.9100 H   0  0  0  0  0  0  0  0  0  0  0  0
   24.1719   50.8375   33.9269 H   0  0  0  0  0  0  0  0  0  0  0  0
   22.2653   49.8558   32.2314 H   0  0  0  0  0  0  0  0  0  0  0  0
   19.8786   49.9104   32.0647 H   0  0  0  0  0  0  0  0  0  0  0  0
   18.6188   52.0138   32.7443 H   0  0  0  0  0  0  0  0  0  0  0  0
   22.4049   53.7758   33.7475 H   0  0  0  0  0  0  0  0  0  0  0  0
   24.5160   48.8750   32.2179 H   0  0  0  0  0  0  0  0  0  0  0  0
   26.4450   49.4252   34.7173 H   0  0  0  0  0  0  0  0  0  0  0  0
   25.2883   48.0455   34.4020 H   0  0  0  0  0  0  0  0  0  0  0  0
   26.5237   47.5813   32.0877 H   0  0  0  0  0  0  0  0  0  0  0  0
   27.6108   49.0082   32.5092 H   0  0  0  0  0  0  0  0  0  0  0  0
   27.3292   49.9441   30.9100 H   0  0  0  0  0  0  0  0  0  0  0  0
   28.9834   54.9042   28.3762 H   0  0  0  0  0  0  0  0  0  0  0  0
   28.2284   54.0415   27.0104 H   0  0  0  0  0  0  0  0  0  0  0  0
  1  2  2  0
  2  3  1  0
  2 21  1  0
  3  4  1  0
  3 11  2  0
  4  5  1  0
  4 23  1  0
  4 24  1  0
  5  6  2  0
  5 10  1  0
  6  7  1  0
  6 25  1  0
  7  8  2  0
  7 26  1  0
  8  9  1  0
  8 27  1  0
  9 10  2  0
  9 22  1  0
 10 28  1  0
 11 12  1  0
 11 15  1  0
 12 13  1  0
 12 14  1  0
 12 29  1  0
 13 14  1  0
 13 30  1  0
 13 31  1  0
 14 32  1  0
 14 33  1  0
 15 16  1  0
 15 34  1  0
 16 17  2  0
 16 21  1  0
 17 18  1  0
 18 19  1  0
 18 20  2  0
 19 35  1  0
 19 36  1  0
 20 21  1  0
M  END
>  <CRASH_ATOM_PAIR>  (5) 
0

>  <pdb_header>  (5) 


$$$$
ligand_4
     RDKit          3D

 36 39  0  0  0  0  0  0  0  0999 V2000
   24.3899   54.0063   31.7659 O   0  0  0  0  0  0  0  0  0  0  0  0
   25.0864   52.9494   31.6240 C   0  0  0  0  0  0  0  0  0  0  0  0
   24.9478   51.8570   32.4424 C   0  0  0  0  0  0  0  0  0  0  0  0
   23.9650   51.9179   33.5305 C   0  0  0  0  0  0  0  0  0  0  0  0
   22.5495   51.8826   33.1046 C   0  0  0  0  0  0  0  0  0  0  0  0
   21.7183   52.9995   33.1808 C   0  0  0  0  0  0  0  0  0  0  0  0
   20.4039   53.0082   32.7871 C   0  0  0  0  0  0  0  0  0  0  0  0
   19.8458   51.8539   32.2841 C   0  0  0  0  0  0  0  0  0  0  0  0
   20.6182   50.7197   32.1858 C   0  0  0  0  0  0  0  0  0  0  0  0
   21.9565   50.7503   32.5966 C   0  0  0  0  0  0  0  0  0  0  0  0
   25.7528   50.7292   32.2225 C   0  0  0  0  0  0  0  0  0  0  0  0
   25.6232   49.5750   33.1145 C   0  0  0  0  0  0  0  0  0  0  0  0
   25.6053   48.1989   32.4852 C   0  0  0  0  0  0  0  0  0  0  0  0
   26.7852   48.6689   33.3313 C   0  0  0  0  0  0  0  0  0  0  0  0
   26.6298   50.7734   31.2076 N   0  0  0  0  0  0  0  0  0  0  0  0
   26.7618   51.8500   30.4047 C   0  0  0  0  0  0  0  0  0  0  0  0
   27.5706   52.1027   29.3423 N   0  0  0  0  0  0  0  0  0  0  0  0
   27.2914   53.3249   28.9139 C   0  0  0  0  0  0  0  0  0  0  0  0
   27.9471   53.9474   27.7981 N   0  0  0  0  0  0  0  0  0  0  0  0
   26.3253   53.8257   29.6981 N   0  0  0  0  0  0  0  0  0  0  0  0
   25.9932   52.9285   30.6149 N   0  0  0  0  0  0  0  0  0  0  0  0
   24.1178   52.9130   34.0423 H   0  0  0  0  0  0  0  0  0  0  0  0
   24.0952   51.1293   34.2938 H   0  0  0  0  0  0  0  0  0  0  0  0
   22.0995   53.9302   33.5745 H   0  0  0  0  0  0  0  0  0  0  0  0
   19.7926   53.9185   32.8686 H   0  0  0  0  0  0  0  0  0  0  0  0
   18.7948   51.8719   31.9734 H   0  0  0  0  0  0  0  0  0  0  0  0
   20.1732   49.8045   31.7854 H   0  0  0  0  0  0  0  0  0  0  0  0
   22.4712   49.8105   32.4773 H   0  0  0  0  0  0  0  0  0  0  0  0
   24.9504   49.6359   34.0077 H   0  0  0  0  0  0  0  0  0  0  0  0
   24.9404   47.4197   32.9172 H   0  0  0  0  0  0  0  0  0  0  0  0
   25.8974   48.0182   31.4514 H   0  0  0  0  0  0  0  0  0  0  0  0
   26.8867   48.1262   34.2791 H   0  0  0  0  0  0  0  0  0  0  0  0
   27.7586   48.8705   32.8426 H   0  0  0  0  0  0  0  0  0  0  0  0
   27.2648   49.9757   30.9751 H   0  0  0  0  0  0  0  0  0  0  0  0
   27.8063   53.6118   26.8206 H   0  0  0  0  0  0  0  0  0  0  0  0
   28.5852   54.7579   27.9450 H   0  0  0  0  0  0  0  0  0  0  0  0
  1  2  2  0
  2  3  1  0
  2 21  1  0
  3  4  1  0
  3 11  2  0
  4  5  1  0
  4 22  1  0
  4 23  1  0
  5  6  2  0
  5 10  1  0
  6  7  1  0
  6 24  1  0
  7  8  2  0
  7 25  1  0
  8  9  1  0
  8 26  1  0
  9 10  2  0
  9 27  1  0
 10 28  1  0
 11 12  1  0
 11 15  1  0
 12 13  1  0
 12 14  1  0
 12 29  1  0
 13 14  1  0
 13 30  1  0
 13 31  1  0
 14 32  1  0
 14 33  1  0
 15 16  1  0
 15 34  1  0
 16 17  2  0
 16 21  1  0
 17 18  1  0
 18 19  1  0
 18 20  2  0
 19 35  1  0
 19 36  1  0
 20 21  1  0
M  END
>  <CRASH_ATOM_PAIR>  (6) 
0

>  <pdb_header>  (6) 


$$$$
ligand_5
     RDKit          3D

 36 39  0  0  0  0  0  0  0  0999 V2000
   24.5340   54.0460   31.8092 O   0  0  0  0  0  0  0  0  0  0  0  0
   25.1191   52.9437   31.6647 C   0  0  0  0  0  0  0  0  0  0  0  0
   24.8998   51.8449   32.4501 C   0  0  0  0  0  0  0  0  0  0  0  0
   23.9314   51.8339   33.5365 C   0  0  0  0  0  0  0  0  0  0  0  0
   22.4994   51.8965   33.1732 C   0  0  0  0  0  0  0  0  0  0  0  0
   21.8142   50.7185   32.8527 C   0  0  0  0  0  0  0  0  0  0  0  0
   20.5106   50.6918   32.4151 C   0  0  0  0  0  0  0  0  0  0  0  0
   19.7944   51.8553   32.2650 C   0  0  0  0  0  0  0  0  0  0  0  0
   20.4419   53.0192   32.5746 C   0  0  0  0  0  0  0  0  0  0  0  0
   21.7657   53.0369   33.0206 C   0  0  0  0  0  0  0  0  0  0  0  0
   25.6351   50.7053   32.1558 C   0  0  0  0  0  0  0  0  0  0  0  0
   25.5217   49.4910   32.9672 C   0  0  0  0  0  0  0  0  0  0  0  0
   25.9792   48.2034   32.3703 C   0  0  0  0  0  0  0  0  0  0  0  0
   26.7962   48.8223   33.4268 C   0  0  0  0  0  0  0  0  0  0  0  0
   26.5018   50.7472   31.1347 N   0  0  0  0  0  0  0  0  0  0  0  0
   26.7014   51.8522   30.3690 C   0  0  0  0  0  0  0  0  0  0  0  0
   27.5352   52.0649   29.3080 N   0  0  0  0  0  0  0  0  0  0  0  0
   27.3340   53.3353   28.9293 C   0  0  0  0  0  0  0  0  0  0  0  0
   28.0283   53.9549   27.8375 N   0  0  0  0  0  0  0  0  0  0  0  0
   26.4054   53.8554   29.7470 N   0  0  0  0  0  0  0  0  0  0  0  0
   26.0181   52.9504   30.6276 N   0  0  0  0  0  0  0  0  0  0  0  0
   22.3904   54.5856   33.4900 Cl  0  0  0  0  0  0  0  0  0  0  0  0
   24.1164   52.8076   34.1493 H   0  0  0  0  0  0  0  0  0  0  0  0
   24.0343   51.0690   34.3038 H   0  0  0  0  0  0  0  0  0  0  0  0
   22.3446   49.7811   32.9567 H   0  0  0  0  0  0  0  0  0  0  0  0
   20.0285   49.7644   32.1834 H   0  0  0  0  0  0  0  0  0  0  0  0
   18.7672   51.8718   31.9169 H   0  0  0  0  0  0  0  0  0  0  0  0
   19.8791   53.9493   32.4546 H   0  0  0  0  0  0  0  0  0  0  0  0
   24.7656   49.5018   33.7582 H   0  0  0  0  0  0  0  0  0  0  0  0
   26.3837   48.1479   31.3660 H   0  0  0  0  0  0  0  0  0  0  0  0
   25.3779   47.2713   32.6146 H   0  0  0  0  0  0  0  0  0  0  0  0
   26.8030   48.3287   34.4174 H   0  0  0  0  0  0  0  0  0  0  0  0
   27.7706   49.2803   33.1705 H   0  0  0  0  0  0  0  0  0  0  0  0
   27.1087   49.9245   30.8401 H   0  0  0  0  0  0  0  0  0  0  0  0
   29.0603   53.8966   27.7221 H   0  0  0  0  0  0  0  0  0  0  0  0
   27.4574   54.4710   27.1535 H   0  0  0  0  0  0  0  0  0  0  0  0
  1  2  2  0
  2  3  1  0
  2 21  1  0
  3  4  1  0
  3 11  2  0
  4  5  1  0
  4 23  1  0
  4 24  1  0
  5  6  2  0
  5 10  1  0
  6  7  1  0
  6 25  1  0
  7  8  2  0
  7 26  1  0
  8  9  1  0
  8 27  1  0
  9 10  2  0
  9 28  1  0
 10 22  1  0
 11 12  1  0
 11 15  1  0
 12 13  1  0
 12 14  1  0
 12 29  1  0
 13 14  1  0
 13 30  1  0
 13 31  1  0
 14 32  1  0
 14 33  1  0
 15 16  1  0
 15 34  1  0
 16 17  2  0
 16 21  1  0
 17 18  1  0
 18 19  1  0
 18 20  2  0
 19 35  1  0
 19 36  1  0
 20 21  1  0
M  END
>  <CRASH_ATOM_PAIR>  (7) 
0

>  <pdb_header>  (7) 


$$$$
ligand_6
     RDKit          3D

 40 43  0  0  0  0  0  0  0  0999 V2000
   25.0997   52.9666   31.5831 C   0  0  0  0  0  0  0  0  0  0  0  0
   26.5791   50.8108   31.1566 N   0  0  0  0  0  0  0  0  0  0  0  0
   24.3918   53.9821   31.7996 O   0  0  0  0  0  0  0  0  0  0  0  0
   24.9257   51.8845   32.3760 C   0  0  0  0  0  0  0  0  0  0  0  0
   27.5586   52.1186   29.3231 N   0  0  0  0  0  0  0  0  0  0  0  0
   22.6774   49.5136   32.3235 O   0  0  0  0  0  0  0  0  0  0  0  0
   23.9896   51.7367   33.4863 C   0  0  0  0  0  0  0  0  0  0  0  0
   27.9829   53.9479   27.7516 N   0  0  0  0  0  0  0  0  0  0  0  0
   22.5717   51.7938   33.0453 C   0  0  0  0  0  0  0  0  0  0  0  0
   26.3514   53.8802   29.6731 N   0  0  0  0  0  0  0  0  0  0  0  0
   21.8218   52.9372   33.2263 C   0  0  0  0  0  0  0  0  0  0  0  0
   26.0165   52.9875   30.5638 N   0  0  0  0  0  0  0  0  0  0  0  0
   20.4996   52.9992   32.9055 C   0  0  0  0  0  0  0  0  0  0  0  0
   19.8253   51.9308   32.3799 C   0  0  0  0  0  0  0  0  0  0  0  0
   20.5789   50.7729   32.1956 C   0  0  0  0  0  0  0  0  0  0  0  0
   21.9041   50.6751   32.5075 C   0  0  0  0  0  0  0  0  0  0  0  0
   22.0390   48.2570   32.4002 C   0  0  0  0  0  0  0  0  0  0  0  0
   25.7096   50.7183   32.1643 C   0  0  0  0  0  0  0  0  0  0  0  0
   25.5502   49.5301   32.9943 C   0  0  0  0  0  0  0  0  0  0  0  0
   25.9288   48.1648   32.4427 C   0  0  0  0  0  0  0  0  0  0  0  0
   26.4163   48.7713   33.8145 C   0  0  0  0  0  0  0  0  0  0  0  0
   26.7399   51.8949   30.3756 C   0  0  0  0  0  0  0  0  0  0  0  0
   27.3256   53.3654   28.8706 C   0  0  0  0  0  0  0  0  0  0  0  0
   24.0869   52.6440   34.1452 H   0  0  0  0  0  0  0  0  0  0  0  0
   24.0825   50.8022   34.0376 H   0  0  0  0  0  0  0  0  0  0  0  0
   22.2376   53.8537   33.6570 H   0  0  0  0  0  0  0  0  0  0  0  0
   19.8893   53.9092   33.0545 H   0  0  0  0  0  0  0  0  0  0  0  0
   18.7725   51.9858   32.1218 H   0  0  0  0  0  0  0  0  0  0  0  0
   20.0662   49.9293   31.7810 H   0  0  0  0  0  0  0  0  0  0  0  0
   22.7646   47.4233   32.4290 H   0  0  0  0  0  0  0  0  0  0  0  0
   21.3170   48.2071   33.2365 H   0  0  0  0  0  0  0  0  0  0  0  0
   21.4635   48.1360   31.4253 H   0  0  0  0  0  0  0  0  0  0  0  0
   24.4462   49.4700   33.3168 H   0  0  0  0  0  0  0  0  0  0  0  0
   25.2947   47.2939   32.5449 H   0  0  0  0  0  0  0  0  0  0  0  0
   26.6666   48.1589   31.6144 H   0  0  0  0  0  0  0  0  0  0  0  0
   27.5165   48.7086   33.8445 H   0  0  0  0  0  0  0  0  0  0  0  0
   26.0168   48.2756   34.7321 H   0  0  0  0  0  0  0  0  0  0  0  0
   27.2060   49.9837   30.9151 H   0  0  0  0  0  0  0  0  0  0  0  0
   28.2332   53.3515   26.9219 H   0  0  0  0  0  0  0  0  0  0  0  0
   28.2224   54.9453   27.7373 H   0  0  0  0  0  0  0  0  0  0  0  0
  1  3  2  0
  1  4  1  0
  1 12  1  0
  2 18  1  0
  2 22  1  0
  2 38  1  0
  4  7  1  0
  4 18  2  0
  5 22  2  0
  5 23  1  0
  6 16  1  0
  6 17  1  0
  7  9  1  0
  7 24  1  0
  7 25  1  0
  8 23  1  0
  8 39  1  0
  8 40  1  0
  9 11  2  0
  9 16  1  0
 10 12  1  0
 10 23  2  0
 11 13  1  0
 11 26  1  0
 12 22  1  0
 13 14  2  0
 13 27  1  0
 14 15  1  0
 14 28  1  0
 15 16  2  0
 15 29  1  0
 17 30  1  0
 17 31  1  0
 17 32  1  0
 18 19  1  0
 19 20  1  0
 19 21  1  0
 19 33  1  0
 20 21  1  0
 20 34  1  0
 20 35  1  0
 21 36  1  0
 21 37  1  0
M  END
>  <CRASH_ATOM_PAIR>  (8) 
0

>  <pdb_header>  (8) 


$$$$
ligand_7
     RDKit          3D

 39 42  0  0  0  0  0  0  0  0999 V2000
   24.1373   53.6952   31.5725 O   0  0  0  0  0  0  0  0  0  0  0  0
   24.9548   52.7580   31.4769 C   0  0  0  0  0  0  0  0  0  0  0  0
   24.8560   51.6825   32.3160 C   0  0  0  0  0  0  0  0  0  0  0  0
   23.8639   51.6047   33.3687 C   0  0  0  0  0  0  0  0  0  0  0  0
   22.4596   51.8255   33.0662 C   0  0  0  0  0  0  0  0  0  0  0  0
   21.7711   52.9325   33.4822 C   0  0  0  0  0  0  0  0  0  0  0  0
   20.4283   53.1807   33.1719 C   0  0  0  0  0  0  0  0  0  0  0  0
   19.7910   52.2343   32.4013 C   0  0  0  0  0  0  0  0  0  0  0  0
   20.4407   51.1040   31.9592 C   0  0  0  0  0  0  0  0  0  0  0  0
   19.6839   50.1297   31.1212 C   0  0  0  0  0  0  0  0  0  0  0  0
   21.7631   50.9099   32.2932 C   0  0  0  0  0  0  0  0  0  0  0  0
   25.8134   50.6758   32.1438 C   0  0  0  0  0  0  0  0  0  0  0  0
   25.7404   49.4952   33.0095 C   0  0  0  0  0  0  0  0  0  0  0  0
   26.2542   48.1740   32.5476 C   0  0  0  0  0  0  0  0  0  0  0  0
   26.8437   48.8906   33.7438 C   0  0  0  0  0  0  0  0  0  0  0  0
   26.7737   50.7497   31.2182 N   0  0  0  0  0  0  0  0  0  0  0  0
   26.8332   51.8358   30.4075 C   0  0  0  0  0  0  0  0  0  0  0  0
   27.6781   52.1641   29.4165 N   0  0  0  0  0  0  0  0  0  0  0  0
   27.2745   53.3597   28.9564 C   0  0  0  0  0  0  0  0  0  0  0  0
   27.9445   54.0282   27.8928 N   0  0  0  0  0  0  0  0  0  0  0  0
   26.2011   53.7482   29.6594 N   0  0  0  0  0  0  0  0  0  0  0  0
   25.9442   52.8204   30.5315 N   0  0  0  0  0  0  0  0  0  0  0  0
   24.1968   52.3372   34.1827 H   0  0  0  0  0  0  0  0  0  0  0  0
   24.0071   50.6111   33.9179 H   0  0  0  0  0  0  0  0  0  0  0  0
   22.2109   53.7161   34.0791 H   0  0  0  0  0  0  0  0  0  0  0  0
   19.9211   54.0873   33.5290 H   0  0  0  0  0  0  0  0  0  0  0  0
   18.7376   52.4128   32.1464 H   0  0  0  0  0  0  0  0  0  0  0  0
   20.3885   49.4916   30.5344 H   0  0  0  0  0  0  0  0  0  0  0  0
   19.0518   50.6589   30.3467 H   0  0  0  0  0  0  0  0  0  0  0  0
   19.0031   49.4978   31.7090 H   0  0  0  0  0  0  0  0  0  0  0  0
   22.2523   49.9939   31.9119 H   0  0  0  0  0  0  0  0  0  0  0  0
   24.7031   49.3906   33.4599 H   0  0  0  0  0  0  0  0  0  0  0  0
   25.6656   47.2496   32.7140 H   0  0  0  0  0  0  0  0  0  0  0  0
   26.9023   48.0942   31.6339 H   0  0  0  0  0  0  0  0  0  0  0  0
   27.8864   49.2097   33.6336 H   0  0  0  0  0  0  0  0  0  0  0  0
   26.6320   48.4541   34.7589 H   0  0  0  0  0  0  0  0  0  0  0  0
   27.4894   49.9750   31.1030 H   0  0  0  0  0  0  0  0  0  0  0  0
   28.9768   54.1378   27.8696 H   0  0  0  0  0  0  0  0  0  0  0  0
   27.4449   54.4532   27.0686 H   0  0  0  0  0  0  0  0  0  0  0  0
  1  2  2  0
  2  3  1  0
  2 22  1  0
  3  4  1  0
  3 12  2  0
  4  5  1  0
  4 23  1  0
  4 24  1  0
  5  6  2  0
  5 11  1  0
  6  7  1  0
  6 25  1  0
  7  8  2  0
  7 26  1  0
  8  9  1  0
  8 27  1  0
  9 10  1  0
  9 11  2  0
 10 28  1  0
 10 29  1  0
 10 30  1  0
 11 31  1  0
 12 13  1  0
 12 16  1  0
 13 14  1  0
 13 15  1  0
 13 32  1  0
 14 15  1  0
 14 33  1  0
 14 34  1  0
 15 35  1  0
 15 36  1  0
 16 17  1  0
 16 37  1  0
 17 18  2  0
 17 22  1  0
 18 19  1  0
 19 20  1  0
 19 21  2  0
 20 38  1  0
 20 39  1  0
 21 22  1  0
M  END
>  <CRASH_ATOM_PAIR>  (9) 
0

>  <pdb_header>  (9) 


$$$$
ligand_8
     RDKit          3D

 36 39  0  0  0  0  0  0  0  0999 V2000
   24.5199   54.0690   31.8863 O   0  0  0  0  0  0  0  0  0  0  0  0
   25.1497   52.9940   31.6469 C   0  0  0  0  0  0  0  0  0  0  0  0
   24.9312   51.9037   32.4185 C   0  0  0  0  0  0  0  0  0  0  0  0
   24.0176   51.9491   33.5659 C   0  0  0  0  0  0  0  0  0  0  0  0
   22.5860   51.9389   33.0534 C   0  0  0  0  0  0  0  0  0  0  0  0
   22.0944   50.7293   32.5943 C   0  0  0  0  0  0  0  0  0  0  0  0
   20.7585   50.6240   32.2292 C   0  0  0  0  0  0  0  0  0  0  0  0
   19.9443   51.7352   32.3247 C   0  0  0  0  0  0  0  0  0  0  0  0
   20.4566   52.9376   32.7789 C   0  0  0  0  0  0  0  0  0  0  0  0
   21.7949   53.0619   33.1546 C   0  0  0  0  0  0  0  0  0  0  0  0
   25.6359   50.7230   32.1438 C   0  0  0  0  0  0  0  0  0  0  0  0
   25.2882   49.5329   32.9202 C   0  0  0  0  0  0  0  0  0  0  0  0
   26.1341   48.6689   33.7755 C   0  0  0  0  0  0  0  0  0  0  0  0
   26.1955   48.3409   32.3305 C   0  0  0  0  0  0  0  0  0  0  0  0
   26.5175   50.6761   31.1229 N   0  0  0  0  0  0  0  0  0  0  0  0
   26.7095   51.8203   30.3564 C   0  0  0  0  0  0  0  0  0  0  0  0
   27.4811   52.0585   29.2863 N   0  0  0  0  0  0  0  0  0  0  0  0
   27.2750   53.3259   28.8946 C   0  0  0  0  0  0  0  0  0  0  0  0
   27.8801   53.9728   27.7821 N   0  0  0  0  0  0  0  0  0  0  0  0
   26.3644   53.8586   29.7468 N   0  0  0  0  0  0  0  0  0  0  0  0
   26.0324   52.9483   30.6230 N   0  0  0  0  0  0  0  0  0  0  0  0
   19.3493   54.4725   32.9050 Br  0  0  0  0  0  0  0  0  0  0  0  0
   24.0916   51.0577   34.2087 H   0  0  0  0  0  0  0  0  0  0  0  0
   24.1579   52.8316   34.2349 H   0  0  0  0  0  0  0  0  0  0  0  0
   22.7076   49.8345   32.4631 H   0  0  0  0  0  0  0  0  0  0  0  0
   20.3854   49.6686   31.8784 H   0  0  0  0  0  0  0  0  0  0  0  0
   18.9055   51.6544   32.0376 H   0  0  0  0  0  0  0  0  0  0  0  0
   22.2210   54.0033   33.5054 H   0  0  0  0  0  0  0  0  0  0  0  0
   24.2310   49.1946   32.7881 H   0  0  0  0  0  0  0  0  0  0  0  0
   27.0529   49.0909   34.2374 H   0  0  0  0  0  0  0  0  0  0  0  0
   25.5697   48.0026   34.4907 H   0  0  0  0  0  0  0  0  0  0  0  0
   27.1321   48.6534   31.8013 H   0  0  0  0  0  0  0  0  0  0  0  0
   25.6853   47.4753   31.9295 H   0  0  0  0  0  0  0  0  0  0  0  0
   27.0519   49.8355   30.8415 H   0  0  0  0  0  0  0  0  0  0  0  0
   27.2933   54.7209   27.3084 H   0  0  0  0  0  0  0  0  0  0  0  0
   28.8095   53.7661   27.4119 H   0  0  0  0  0  0  0  0  0  0  0  0
  1  2  2  0
  2  3  1  0
  2 21  1  0
  3  4  1  0
  3 11  2  0
  4  5  1  0
  4 23  1  0
  4 24  1  0
  5  6  2  0
  5 10  1  0
  6  7  1  0
  6 25  1  0
  7  8  2  0
  7 26  1  0
  8  9  1  0
  8 27  1  0
  9 10  2  0
  9 22  1  0
 10 28  1  0
 11 12  1  0
 11 15  1  0
 12 13  1  0
 12 14  1  0
 12 29  1  0
 13 14  1  0
 13 30  1  0
 13 31  1  0
 14 32  1  0
 14 33  1  0
 15 16  1  0
 15 34  1  0
 16 17  2  0
 16 21  1  0
 17 18  1  0
 18 19  1  0
 18 20  2  0
 19 35  1  0
 19 36  1  0
 20 21  1  0
M  END
>  <CRASH_ATOM_PAIR>  (10) 
0

>  <pdb_header>  (10) 


$$$$
ligand_9
     RDKit          3D

 40 43  0  0  0  0  0  0  0  0999 V2000
   24.9811   52.8425   31.5861 C   0  0  0  0  0  0  0  0  0  0  0  0
   26.6681   50.7293   31.2519 N   0  0  0  0  0  0  0  0  0  0  0  0
   24.2086   53.8216   31.7328 O   0  0  0  0  0  0  0  0  0  0  0  0
   24.9032   51.7164   32.4026 C   0  0  0  0  0  0  0  0  0  0  0  0
   27.5443   52.1533   29.4166 N   0  0  0  0  0  0  0  0  0  0  0  0
   19.6715   49.8592   31.7717 O   0  0  0  0  0  0  0  0  0  0  0  0
   23.9237   51.6511   33.4837 C   0  0  0  0  0  0  0  0  0  0  0  0
   27.8368   54.0641   27.8515 N   0  0  0  0  0  0  0  0  0  0  0  0
   22.5143   51.8537   33.0824 C   0  0  0  0  0  0  0  0  0  0  0  0
   26.1931   53.8006   29.7145 N   0  0  0  0  0  0  0  0  0  0  0  0
   21.9008   53.0828   33.0804 C   0  0  0  0  0  0  0  0  0  0  0  0
   25.9156   52.8645   30.6188 N   0  0  0  0  0  0  0  0  0  0  0  0
   20.5786   53.2573   32.6582 C   0  0  0  0  0  0  0  0  0  0  0  0
   19.8452   52.1775   32.2253 C   0  0  0  0  0  0  0  0  0  0  0  0
   20.4346   50.9329   32.2162 C   0  0  0  0  0  0  0  0  0  0  0  0
   20.2471   48.6583   31.3254 C   0  0  0  0  0  0  0  0  0  0  0  0
   21.7260   50.7864   32.6332 C   0  0  0  0  0  0  0  0  0  0  0  0
   25.7665   50.6284   32.2361 C   0  0  0  0  0  0  0  0  0  0  0  0
   25.7134   49.4123   33.0772 C   0  0  0  0  0  0  0  0  0  0  0  0
   26.1581   48.1041   32.4543 C   0  0  0  0  0  0  0  0  0  0  0  0
   26.9983   48.7858   33.5116 C   0  0  0  0  0  0  0  0  0  0  0  0
   26.7472   51.8291   30.4498 C   0  0  0  0  0  0  0  0  0  0  0  0
   27.2095   53.3753   28.9519 C   0  0  0  0  0  0  0  0  0  0  0  0
   24.1883   52.3966   34.2802 H   0  0  0  0  0  0  0  0  0  0  0  0
   23.9863   50.6667   34.0309 H   0  0  0  0  0  0  0  0  0  0  0  0
   22.3986   53.9673   33.4068 H   0  0  0  0  0  0  0  0  0  0  0  0
   20.1004   54.2227   32.6585 H   0  0  0  0  0  0  0  0  0  0  0  0
   18.8108   52.3374   31.9016 H   0  0  0  0  0  0  0  0  0  0  0  0
   19.9912   47.8015   31.9951 H   0  0  0  0  0  0  0  0  0  0  0  0
   21.3577   48.7314   31.3863 H   0  0  0  0  0  0  0  0  0  0  0  0
   20.0085   48.4460   30.2673 H   0  0  0  0  0  0  0  0  0  0  0  0
   22.1767   49.7921   32.6199 H   0  0  0  0  0  0  0  0  0  0  0  0
   24.8744   49.3017   33.8053 H   0  0  0  0  0  0  0  0  0  0  0  0
   25.6523   47.1555   32.7247 H   0  0  0  0  0  0  0  0  0  0  0  0
   26.6461   48.0636   31.4792 H   0  0  0  0  0  0  0  0  0  0  0  0
   27.0844   48.2179   34.4562 H   0  0  0  0  0  0  0  0  0  0  0  0
   27.9272   49.3192   33.2414 H   0  0  0  0  0  0  0  0  0  0  0  0
   27.3602   49.9630   31.0421 H   0  0  0  0  0  0  0  0  0  0  0  0
   28.2114   55.0136   28.0376 H   0  0  0  0  0  0  0  0  0  0  0  0
   27.9289   53.6697   26.9101 H   0  0  0  0  0  0  0  0  0  0  0  0
  1  3  2  0
  1  4  1  0
  1 12  1  0
  2 18  1  0
  2 22  1  0
  2 38  1  0
  4  7  1  0
  4 18  2  0
  5 22  2  0
  5 23  1  0
  6 15  1  0
  6 16  1  0
  7  9  1  0
  7 24  1  0
  7 25  1  0
  8 23  1  0
  8 39  1  0
  8 40  1  0
  9 11  2  0
  9 17  1  0
 10 12  1  0
 10 23  2  0
 11 13  1  0
 11 26  1  0
 12 22  1  0
 13 14  2  0
 13 27  1  0
 14 15  1  0
 14 28  1  0
 15 17  2  0
 16 29  1  0
 16 30  1  0
 16 31  1  0
 17 32  1  0
 18 19  1  0
 19 20  1  0
 19 21  1  0
 19 33  1  0
 20 21  1  0
 20 34  1  0
 20 35  1  0
 21 36  1  0
 21 37  1  0
M  END
>  <CRASH_ATOM_PAIR>  (11) 
0

>  <pdb_header>  (11) 


$$$$
ligand_12
     RDKit          3D

 40 43  0  0  0  0  0  0  0  0999 V2000
   25.1330   52.9410   31.6710 C   0  0  0  0  0  0  0  0  0  0  0  0
   26.4750   50.7090   31.1140 N   0  0  0  0  0  0  0  0  0  0  0  0
   24.5300   54.0400   31.8750 O   0  0  0  0  0  0  0  0  0  0  0  0
   24.9380   51.8160   32.4380 C   0  0  0  0  0  0  0  0  0  0  0  0
   27.4460   52.0850   29.2920 N   0  0  0  0  0  0  0  0  0  0  0  0
   18.5720   51.8320   31.7920 O   0  0  0  0  0  0  0  0  0  0  0  0
   23.9680   51.9110   33.5500 C   0  0  0  0  0  0  0  0  0  0  0  0
   27.8950   54.0320   27.8230 N   0  0  0  0  0  0  0  0  0  0  0  0
   22.5470   51.8900   33.0930 C   0  0  0  0  0  0  0  0  0  0  0  0
   26.3500   53.8640   29.7660 N   0  0  0  0  0  0  0  0  0  0  0  0
   21.8360   53.0690   33.0790 C   0  0  0  0  0  0  0  0  0  0  0  0
   25.9880   52.9460   30.6390 N   0  0  0  0  0  0  0  0  0  0  0  0
   20.5080   53.0270   32.6400 C   0  0  0  0  0  0  0  0  0  0  0  0
   19.8710   51.8870   32.2230 C   0  0  0  0  0  0  0  0  0  0  0  0
   18.1900   51.5370   30.4970 C   0  0  0  0  0  0  0  0  0  0  0  0
   20.6330   50.6970   32.2520 C   0  0  0  0  0  0  0  0  0  0  0  0
   21.9360   50.7300   32.6810 C   0  0  0  0  0  0  0  0  0  0  0  0
   25.6380   50.6500   32.1500 C   0  0  0  0  0  0  0  0  0  0  0  0
   25.4600   49.4220   32.9790 C   0  0  0  0  0  0  0  0  0  0  0  0
   26.0160   48.1250   32.4880 C   0  0  0  0  0  0  0  0  0  0  0  0
   26.6770   48.8440   33.6130 C   0  0  0  0  0  0  0  0  0  0  0  0
   26.6720   51.8100   30.3550 C   0  0  0  0  0  0  0  0  0  0  0  0
   27.2500   53.3740   28.9140 C   0  0  0  0  0  0  0  0  0  0  0  0
   24.0890   51.1820   34.3490 H   0  0  0  0  0  0  0  0  0  0  0  0
   24.1800   52.9210   34.0310 H   0  0  0  0  0  0  0  0  0  0  0  0
   22.2700   54.0240   33.3990 H   0  0  0  0  0  0  0  0  0  0  0  0
   20.0050   54.0050   32.6580 H   0  0  0  0  0  0  0  0  0  0  0  0
   19.0460   51.3570   29.8360 H   0  0  0  0  0  0  0  0  0  0  0  0
   17.5460   50.6210   30.4300 H   0  0  0  0  0  0  0  0  0  0  0  0
   17.6410   52.4070   30.0170 H   0  0  0  0  0  0  0  0  0  0  0  0
   20.1550   49.7870   31.9290 H   0  0  0  0  0  0  0  0  0  0  0  0
   22.4620   49.7640   32.6700 H   0  0  0  0  0  0  0  0  0  0  0  0
   24.5760   49.4210   33.6480 H   0  0  0  0  0  0  0  0  0  0  0  0
   25.4140   47.1980   32.7190 H   0  0  0  0  0  0  0  0  0  0  0  0
   26.5460   48.0870   31.5260 H   0  0  0  0  0  0  0  0  0  0  0  0
   26.5930   48.3520   34.6040 H   0  0  0  0  0  0  0  0  0  0  0  0
   27.6940   49.2310   33.4270 H   0  0  0  0  0  0  0  0  0  0  0  0
   27.0360   49.8840   30.8360 H   0  0  0  0  0  0  0  0  0  0  0  0
   28.7550   53.6360   27.4230 H   0  0  0  0  0  0  0  0  0  0  0  0
   27.4990   54.9010   27.4330 H   0  0  0  0  0  0  0  0  0  0  0  0
  1  3  2  0
  1  4  1  0
  1 12  1  0
  2 18  1  0
  2 22  1  0
  2 38  1  0
  4  7  1  0
  4 18  2  0
  5 22  2  0
  5 23  1  0
  6 14  1  0
  6 15  1  0
  7  9  1  0
  7 24  1  0
  7 25  1  0
  8 23  1  0
  8 39  1  0
  8 40  1  0
  9 11  2  0
  9 17  1  0
 10 12  1  0
 10 23  2  0
 11 13  1  0
 11 26  1  0
 12 22  1  0
 13 14  2  0
 13 27  1  0
 14 16  1  0
 15 28  1  0
 15 29  1  0
 15 30  1  0
 16 17  2  0
 16 31  1  0
 17 32  1  0
 18 19  1  0
 19 20  1  0
 19 21  1  0
 19 33  1  0
 20 21  1  0
 20 34  1  0
 20 35  1  0
 21 36  1  0
 21 37  1  0
M  END
>  <pdb_header>  (12) 


$$$$
