ligand_3
  PyMOL2.5          3D                             0

 36 39  0  0  0  0  0  0  0  0999 V2000
   24.2740   54.0540   31.1080 O   0  0  0  0  0  0  0  0  0  0  0  0
   25.0150   53.0100   31.2320 C   0  0  0  0  0  0  0  0  0  0  0  0
   24.7550   52.0390   32.1310 C   0  0  0  0  0  0  0  0  0  0  0  0
   23.7820   52.1700   33.1860 C   0  0  0  0  0  0  0  0  0  0  0  0
   22.3920   52.0390   32.8740 C   0  0  0  0  0  0  0  0  0  0  0  0
   21.8650   50.9550   32.2110 C   0  0  0  0  0  0  0  0  0  0  0  0
   20.5100   50.7560   32.0310 C   0  0  0  0  0  0  0  0  0  0  0  0
   19.5940   51.6560   32.5140 C   0  0  0  0  0  0  0  0  0  0  0  0
   20.0870   52.7500   33.1790 C   0  0  0  0  0  0  0  0  0  0  0  0
   21.4490   52.9680   33.3730 C   0  0  0  0  0  0  0  0  0  0  0  0
   25.6080   50.9110   32.2050 C   0  0  0  0  0  0  0  0  0  0  0  0
   25.1690   49.8560   33.1160 C   0  0  0  0  0  0  0  0  0  0  0  0
   25.6530   49.3830   34.3960 C   0  0  0  0  0  0  0  0  0  0  0  0
   26.4580   48.8920   33.3060 C   0  0  0  0  0  0  0  0  0  0  0  0
   26.6300   50.8520   31.3970 N   0  0  0  0  0  0  0  0  0  0  0  0
   26.8940   51.8460   30.4890 C   0  0  0  0  0  0  0  0  0  0  0  0
   27.8710   52.0360   29.6230 N   0  0  0  0  0  0  0  0  0  0  0  0
   27.7110   53.1910   28.9950 C   0  0  0  0  0  0  0  0  0  0  0  0
   28.5580   53.8010   28.0120 N   0  0  0  0  0  0  0  0  0  0  0  0
   26.5750   53.7350   29.5050 N   0  0  0  0  0  0  0  0  0  0  0  0
   26.0980   52.9090   30.4050 N   0  0  0  0  0  0  0  0  0  0  0  0
   18.9740   53.9370   33.8430 Cl  0  0  0  0  0  0  0  0  0  0  0  0
   23.9050   53.2390   33.6260 H   0  0  0  0  0  0  0  0  0  0  0  0
   24.0690   51.5510   34.0990 H   0  0  0  0  0  0  0  0  0  0  0  0
   22.5700   50.2230   31.8150 H   0  0  0  0  0  0  0  0  0  0  0  0
   20.2300   49.8430   31.4880 H   0  0  0  0  0  0  0  0  0  0  0  0
   18.5460   51.5290   32.3800 H   0  0  0  0  0  0  0  0  0  0  0  0
   21.8560   53.8040   33.9010 H   0  0  0  0  0  0  0  0  0  0  0  0
   24.3800   49.1960   32.5980 H   0  0  0  0  0  0  0  0  0  0  0  0
   26.0670   50.1130   35.1640 H   0  0  0  0  0  0  0  0  0  0  0  0
   24.9310   48.6980   34.9440 H   0  0  0  0  0  0  0  0  0  0  0  0
   26.3770   47.9040   32.8520 H   0  0  0  0  0  0  0  0  0  0  0  0
   27.4340   49.3810   33.1630 H   0  0  0  0  0  0  0  0  0  0  0  0
   27.2730   50.0400   31.3670 H   0  0  0  0  0  0  0  0  0  0  0  0
   29.1360   54.6600   28.2720 H   0  0  0  0  0  0  0  0  0  0  0  0
   28.6420   53.4600   27.0490 H   0  0  0  0  0  0  0  0  0  0  0  0
  1  2  2  0  0  0  0
  2  3  4  0  0  0  0
  2 21  4  0  0  0  0
  3  4  1  0  0  0  0
  3 11  4  0  0  0  0
  4  5  1  0  0  0  0
  4 23  1  0  0  0  0
  4 24  1  0  0  0  0
  5  6  4  0  0  0  0
  5 10  4  0  0  0  0
  6  7  4  0  0  0  0
  6 25  1  0  0  0  0
  7  8  4  0  0  0  0
  7 26  1  0  0  0  0
  8  9  4  0  0  0  0
  8 27  1  0  0  0  0
  9 10  4  0  0  0  0
  9 22  1  0  0  0  0
 10 28  1  0  0  0  0
 11 12  1  0  0  0  0
 11 15  4  0  0  0  0
 12 13  1  0  0  0  0
 12 14  1  0  0  0  0
 12 29  1  0  0  0  0
 13 14  1  0  0  0  0
 13 30  1  0  0  0  0
 13 31  1  0  0  0  0
 14 32  1  0  0  0  0
 14 33  1  0  0  0  0
 15 16  4  0  0  0  0
 15 34  1  0  0  0  0
 16 17  4  0  0  0  0
 16 21  4  0  0  0  0
 17 18  4  0  0  0  0
 18 19  1  0  0  0  0
 18 20  4  0  0  0  0
 19 35  1  0  0  0  0
 19 36  1  0  0  0  0
 20 21  4  0  0  0  0
M  END
>  <pdb_header>


$$$$
