ligand_6
  PyMOL2.5          3D                             0

 40 43  0  0  0  0  0  0  0  0999 V2000
   25.0710   53.0410   31.6220 C   0  0  0  0  0  0  0  0  0  0  0  0
   26.5110   50.8360   31.3350 N   0  0  0  0  0  0  0  0  0  0  0  0
   24.3820   54.0810   31.7730 O   0  0  0  0  0  0  0  0  0  0  0  0
   24.9000   52.0270   32.5010 C   0  0  0  0  0  0  0  0  0  0  0  0
   27.4670   51.9810   29.3840 N   0  0  0  0  0  0  0  0  0  0  0  0
   22.8650   49.6840   32.4220 O   0  0  0  0  0  0  0  0  0  0  0  0
   23.9870   51.9810   33.6390 C   0  0  0  0  0  0  0  0  0  0  0  0
   27.8810   53.6750   27.6650 N   0  0  0  0  0  0  0  0  0  0  0  0
   22.5620   51.9200   33.2220 C   0  0  0  0  0  0  0  0  0  0  0  0
   26.2920   53.7830   29.6200 N   0  0  0  0  0  0  0  0  0  0  0  0
   21.7130   52.9820   33.4530 C   0  0  0  0  0  0  0  0  0  0  0  0
   25.9650   52.9680   30.5850 N   0  0  0  0  0  0  0  0  0  0  0  0
   20.3850   52.9310   33.1550 C   0  0  0  0  0  0  0  0  0  0  0  0
   19.8030   51.8220   32.6040 C   0  0  0  0  0  0  0  0  0  0  0  0
   20.6570   50.7460   32.3690 C   0  0  0  0  0  0  0  0  0  0  0  0
   21.9910   50.7620   32.6570 C   0  0  0  0  0  0  0  0  0  0  0  0
   22.3460   48.5070   31.8410 C   0  0  0  0  0  0  0  0  0  0  0  0
   25.6630   50.8360   32.3650 C   0  0  0  0  0  0  0  0  0  0  0  0
   25.5060   49.7190   33.2890 C   0  0  0  0  0  0  0  0  0  0  0  0
   26.5130   48.5800   33.2780 C   0  0  0  0  0  0  0  0  0  0  0  0
   26.0550   49.3920   34.5500 C   0  0  0  0  0  0  0  0  0  0  0  0
   26.6690   51.8530   30.4680 C   0  0  0  0  0  0  0  0  0  0  0  0
   27.2410   53.1920   28.8400 C   0  0  0  0  0  0  0  0  0  0  0  0
   24.0520   52.9680   34.1760 H   0  0  0  0  0  0  0  0  0  0  0  0
   24.1300   51.1290   34.3020 H   0  0  0  0  0  0  0  0  0  0  0  0
   22.0500   53.9190   33.9080 H   0  0  0  0  0  0  0  0  0  0  0  0
   19.6960   53.7750   33.3440 H   0  0  0  0  0  0  0  0  0  0  0  0
   18.7450   51.7870   32.3640 H   0  0  0  0  0  0  0  0  0  0  0  0
   20.2170   49.8720   31.9340 H   0  0  0  0  0  0  0  0  0  0  0  0
   23.0360   47.6500   31.9510 H   0  0  0  0  0  0  0  0  0  0  0  0
   21.3310   48.2720   32.2120 H   0  0  0  0  0  0  0  0  0  0  0  0
   22.2780   48.7110   30.7230 H   0  0  0  0  0  0  0  0  0  0  0  0
   24.4680   49.2540   33.1080 H   0  0  0  0  0  0  0  0  0  0  0  0
   26.2210   47.5380   33.2900 H   0  0  0  0  0  0  0  0  0  0  0  0
   27.5180   48.8190   32.8740 H   0  0  0  0  0  0  0  0  0  0  0  0
   26.9580   49.7590   35.0650 H   0  0  0  0  0  0  0  0  0  0  0  0
   25.4410   48.8250   35.2910 H   0  0  0  0  0  0  0  0  0  0  0  0
   27.1210   49.9830   31.1460 H   0  0  0  0  0  0  0  0  0  0  0  0
   28.2610   52.9950   26.9580 H   0  0  0  0  0  0  0  0  0  0  0  0
   27.9830   54.6810   27.4920 H   0  0  0  0  0  0  0  0  0  0  0  0
  1  3  2  0  0  0  0
  1  4  4  0  0  0  0
  1 12  4  0  0  0  0
  2 18  4  0  0  0  0
  2 22  4  0  0  0  0
  2 38  1  0  0  0  0
  4  7  1  0  0  0  0
  4 18  4  0  0  0  0
  5 22  4  0  0  0  0
  5 23  4  0  0  0  0
  6 16  1  0  0  0  0
  6 17  1  0  0  0  0
  7  9  1  0  0  0  0
  7 24  1  0  0  0  0
  7 25  1  0  0  0  0
  8 23  1  0  0  0  0
  8 39  1  0  0  0  0
  8 40  1  0  0  0  0
  9 11  4  0  0  0  0
  9 16  4  0  0  0  0
 10 12  4  0  0  0  0
 10 23  4  0  0  0  0
 11 13  4  0  0  0  0
 11 26  1  0  0  0  0
 12 22  4  0  0  0  0
 13 14  4  0  0  0  0
 13 27  1  0  0  0  0
 14 15  4  0  0  0  0
 14 28  1  0  0  0  0
 15 16  4  0  0  0  0
 15 29  1  0  0  0  0
 17 30  1  0  0  0  0
 17 31  1  0  0  0  0
 17 32  1  0  0  0  0
 18 19  1  0  0  0  0
 19 20  1  0  0  0  0
 19 21  1  0  0  0  0
 19 33  1  0  0  0  0
 20 21  1  0  0  0  0
 20 34  1  0  0  0  0
 20 35  1  0  0  0  0
 21 36  1  0  0  0  0
 21 37  1  0  0  0  0
M  END
>  <pdb_header>


$$$$
