ligand_2
  PyMOL2.5          3D                             0

 37 40  0  0  0  0  0  0  0  0999 V2000
   24.0370   53.7020   31.5590 O   0  0  0  0  0  0  0  0  0  0  0  0
   24.8530   52.7520   31.5200 C   0  0  0  0  0  0  0  0  0  0  0  0
   24.7620   51.6800   32.4030 C   0  0  0  0  0  0  0  0  0  0  0  0
   23.7700   51.6670   33.4820 C   0  0  0  0  0  0  0  0  0  0  0  0
   22.4090   51.7510   32.9220 C   0  0  0  0  0  0  0  0  0  0  0  0
   21.9160   50.9420   31.9340 C   0  0  0  0  0  0  0  0  0  0  0  0
   20.6270   51.0530   31.4650 C   0  0  0  0  0  0  0  0  0  0  0  0
   19.7840   52.0210   32.0090 C   0  0  0  0  0  0  0  0  0  0  0  0
   20.2300   52.8520   33.0000 C   0  0  0  0  0  0  0  0  0  0  0  0
   21.5080   52.7140   33.4360 C   0  0  0  0  0  0  0  0  0  0  0  0
   25.6870   50.6810   32.3030 C   0  0  0  0  0  0  0  0  0  0  0  0
   25.6140   49.5600   33.2910 C   0  0  0  0  0  0  0  0  0  0  0  0
   27.0170   48.8860   33.5620 C   0  0  0  0  0  0  0  0  0  0  0  0
   26.3450   49.7740   34.5900 C   0  0  0  0  0  0  0  0  0  0  0  0
   26.6430   50.7540   31.3760 N   0  0  0  0  0  0  0  0  0  0  0  0
   26.7080   51.8190   30.5230 C   0  0  0  0  0  0  0  0  0  0  0  0
   27.5830   52.1200   29.5280 N   0  0  0  0  0  0  0  0  0  0  0  0
   27.2330   53.3240   28.9720 C   0  0  0  0  0  0  0  0  0  0  0  0
   27.9770   54.0020   27.8550 C   0  0  0  0  0  0  0  0  0  0  0  0
   26.1540   53.7200   29.6450 N   0  0  0  0  0  0  0  0  0  0  0  0
   25.8350   52.8220   30.5740 N   0  0  0  0  0  0  0  0  0  0  0  0
   19.1880   54.0530   33.6940 Cl  0  0  0  0  0  0  0  0  0  0  0  0
   23.8170   50.6820   34.0080 H   0  0  0  0  0  0  0  0  0  0  0  0
   23.9370   52.4840   34.2090 H   0  0  0  0  0  0  0  0  0  0  0  0
   22.5570   50.1760   31.4800 H   0  0  0  0  0  0  0  0  0  0  0  0
   20.2070   50.4250   30.6710 H   0  0  0  0  0  0  0  0  0  0  0  0
   18.7950   52.1060   31.6480 H   0  0  0  0  0  0  0  0  0  0  0  0
   21.9280   53.3460   34.2260 H   0  0  0  0  0  0  0  0  0  0  0  0
   24.8440   48.8250   33.1450 H   0  0  0  0  0  0  0  0  0  0  0  0
   27.8420   49.2890   32.9730 H   0  0  0  0  0  0  0  0  0  0  0  0
   27.0400   47.8120   33.6950 H   0  0  0  0  0  0  0  0  0  0  0  0
   26.8340   50.7820   34.6990 H   0  0  0  0  0  0  0  0  0  0  0  0
   26.0690   49.2950   35.5280 H   0  0  0  0  0  0  0  0  0  0  0  0
   27.3360   50.0010   31.2660 H   0  0  0  0  0  0  0  0  0  0  0  0
   29.0030   53.5320   27.7610 H   0  0  0  0  0  0  0  0  0  0  0  0
   27.4600   53.9400   26.8810 H   0  0  0  0  0  0  0  0  0  0  0  0
   28.0680   55.0830   28.1160 H   0  0  0  0  0  0  0  0  0  0  0  0
  1  2  2  0  0  0  0
  2  3  4  0  0  0  0
  2 21  4  0  0  0  0
  3  4  1  0  0  0  0
  3 11  4  0  0  0  0
  4  5  1  0  0  0  0
  4 23  1  0  0  0  0
  4 24  1  0  0  0  0
  5  6  4  0  0  0  0
  5 10  4  0  0  0  0
  6  7  4  0  0  0  0
  6 25  1  0  0  0  0
  7  8  4  0  0  0  0
  7 26  1  0  0  0  0
  8  9  4  0  0  0  0
  8 27  1  0  0  0  0
  9 10  4  0  0  0  0
  9 22  1  0  0  0  0
 10 28  1  0  0  0  0
 11 12  1  0  0  0  0
 11 15  4  0  0  0  0
 12 13  1  0  0  0  0
 12 14  1  0  0  0  0
 12 29  1  0  0  0  0
 13 14  1  0  0  0  0
 13 30  1  0  0  0  0
 13 31  1  0  0  0  0
 14 32  1  0  0  0  0
 14 33  1  0  0  0  0
 15 16  4  0  0  0  0
 15 34  1  0  0  0  0
 16 17  4  0  0  0  0
 16 21  4  0  0  0  0
 17 18  4  0  0  0  0
 18 19  1  0  0  0  0
 18 20  4  0  0  0  0
 19 35  1  0  0  0  0
 19 36  1  0  0  0  0
 19 37  1  0  0  0  0
 20 21  4  0  0  0  0
M  END
>  <pdb_header>


$$$$
