ligand_5
  PyMOL2.5          3D                             0

 36 39  0  0  0  0  0  0  0  0999 V2000
   24.6430   54.1480   31.8440 O   0  0  0  0  0  0  0  0  0  0  0  0
   25.1590   53.0150   31.6760 C   0  0  0  0  0  0  0  0  0  0  0  0
   24.8820   51.9190   32.4470 C   0  0  0  0  0  0  0  0  0  0  0  0
   23.9260   51.9490   33.5440 C   0  0  0  0  0  0  0  0  0  0  0  0
   22.4890   51.9320   33.1960 C   0  0  0  0  0  0  0  0  0  0  0  0
   21.8750   50.7230   32.8480 C   0  0  0  0  0  0  0  0  0  0  0  0
   20.5710   50.6270   32.4220 C   0  0  0  0  0  0  0  0  0  0  0  0
   19.7820   51.7470   32.3120 C   0  0  0  0  0  0  0  0  0  0  0  0
   20.3590   52.9400   32.6490 C   0  0  0  0  0  0  0  0  0  0  0  0
   21.6840   53.0280   33.0830 C   0  0  0  0  0  0  0  0  0  0  0  0
   25.5440   50.7420   32.1270 C   0  0  0  0  0  0  0  0  0  0  0  0
   25.3660   49.5240   32.9210 C   0  0  0  0  0  0  0  0  0  0  0  0
   25.8060   48.2290   32.3270 C   0  0  0  0  0  0  0  0  0  0  0  0
   26.6030   48.8130   33.4180 C   0  0  0  0  0  0  0  0  0  0  0  0
   26.4010   50.7480   31.0970 N   0  0  0  0  0  0  0  0  0  0  0  0
   26.6590   51.8510   30.3460 C   0  0  0  0  0  0  0  0  0  0  0  0
   27.4930   52.0300   29.2790 N   0  0  0  0  0  0  0  0  0  0  0  0
   27.3650   53.3160   28.9220 C   0  0  0  0  0  0  0  0  0  0  0  0
   28.0840   53.9100   27.8320 N   0  0  0  0  0  0  0  0  0  0  0  0
   26.4780   53.8780   29.7580 N   0  0  0  0  0  0  0  0  0  0  0  0
   26.0460   52.9840   30.6290 N   0  0  0  0  0  0  0  0  0  0  0  0
   22.2160   54.5990   33.5910 Cl  0  0  0  0  0  0  0  0  0  0  0  0
   24.0800   52.9700   34.0840 H   0  0  0  0  0  0  0  0  0  0  0  0
   24.0660   51.2450   34.3620 H   0  0  0  0  0  0  0  0  0  0  0  0
   22.4640   49.8180   32.9200 H   0  0  0  0  0  0  0  0  0  0  0  0
   20.1450   49.6780   32.1680 H   0  0  0  0  0  0  0  0  0  0  0  0
   18.7520   51.7090   31.9740 H   0  0  0  0  0  0  0  0  0  0  0  0
   19.7380   53.8360   32.5610 H   0  0  0  0  0  0  0  0  0  0  0  0
   24.5830   49.5500   33.6850 H   0  0  0  0  0  0  0  0  0  0  0  0
   26.2440   48.1710   31.3370 H   0  0  0  0  0  0  0  0  0  0  0  0
   25.1690   47.3130   32.5400 H   0  0  0  0  0  0  0  0  0  0  0  0
   26.5600   48.3100   34.4030 H   0  0  0  0  0  0  0  0  0  0  0  0
   27.5990   49.2440   33.2010 H   0  0  0  0  0  0  0  0  0  0  0  0
   26.9540   49.8950   30.7830 H   0  0  0  0  0  0  0  0  0  0  0  0
   29.0010   54.3850   27.9560 H   0  0  0  0  0  0  0  0  0  0  0  0
   27.6530   53.8480   26.8990 H   0  0  0  0  0  0  0  0  0  0  0  0
  1  2  2  0  0  0  0
  2  3  4  0  0  0  0
  2 21  4  0  0  0  0
  3  4  1  0  0  0  0
  3 11  4  0  0  0  0
  4  5  1  0  0  0  0
  4 23  1  0  0  0  0
  4 24  1  0  0  0  0
  5  6  4  0  0  0  0
  5 10  4  0  0  0  0
  6  7  4  0  0  0  0
  6 25  1  0  0  0  0
  7  8  4  0  0  0  0
  7 26  1  0  0  0  0
  8  9  4  0  0  0  0
  8 27  1  0  0  0  0
  9 10  4  0  0  0  0
  9 28  1  0  0  0  0
 10 22  1  0  0  0  0
 11 12  1  0  0  0  0
 11 15  4  0  0  0  0
 12 13  1  0  0  0  0
 12 14  1  0  0  0  0
 12 29  1  0  0  0  0
 13 14  1  0  0  0  0
 13 30  1  0  0  0  0
 13 31  1  0  0  0  0
 14 32  1  0  0  0  0
 14 33  1  0  0  0  0
 15 16  4  0  0  0  0
 15 34  1  0  0  0  0
 16 17  4  0  0  0  0
 16 21  4  0  0  0  0
 17 18  4  0  0  0  0
 18 19  1  0  0  0  0
 18 20  4  0  0  0  0
 19 35  1  0  0  0  0
 19 36  1  0  0  0  0
 20 21  4  0  0  0  0
M  END
>  <pdb_header>


$$$$
