ligand_10
  PyMOL2.5          3D                             0

 39 42  0  0  0  0  0  0  0  0999 V2000
   24.5570   53.9570   32.0370 O   0  0  0  0  0  0  0  0  0  0  0  0
   25.2070   52.9340   31.7000 C   0  0  0  0  0  0  0  0  0  0  0  0
   25.0060   51.7950   32.4990 C   0  0  0  0  0  0  0  0  0  0  0  0
   24.0610   51.8420   33.6280 C   0  0  0  0  0  0  0  0  0  0  0  0
   22.6610   51.8610   33.2070 C   0  0  0  0  0  0  0  0  0  0  0  0
   22.0280   50.7600   32.7030 C   0  0  0  0  0  0  0  0  0  0  0  0
   20.6880   50.8080   32.3030 C   0  0  0  0  0  0  0  0  0  0  0  0
   19.9710   51.9730   32.4100 C   0  0  0  0  0  0  0  0  0  0  0  0
   20.5940   53.1180   32.9250 C   0  0  0  0  0  0  0  0  0  0  0  0
   19.8300   54.3790   33.0450 C   0  0  0  0  0  0  0  0  0  0  0  0
   21.9040   53.0180   33.3000 C   0  0  0  0  0  0  0  0  0  0  0  0
   25.6940   50.6780   32.1550 C   0  0  0  0  0  0  0  0  0  0  0  0
   25.6320   49.4290   32.9920 C   0  0  0  0  0  0  0  0  0  0  0  0
   26.0720   48.1540   32.3160 C   0  0  0  0  0  0  0  0  0  0  0  0
   27.0270   48.8010   33.2160 C   0  0  0  0  0  0  0  0  0  0  0  0
   26.5500   50.6490   31.0750 N   0  0  0  0  0  0  0  0  0  0  0  0
   26.7050   51.7730   30.3470 C   0  0  0  0  0  0  0  0  0  0  0  0
   27.4740   52.0400   29.2520 N   0  0  0  0  0  0  0  0  0  0  0  0
   27.2850   53.3340   28.8840 C   0  0  0  0  0  0  0  0  0  0  0  0
   27.8920   54.0230   27.8040 N   0  0  0  0  0  0  0  0  0  0  0  0
   26.3940   53.8210   29.7800 N   0  0  0  0  0  0  0  0  0  0  0  0
   26.0440   52.9030   30.6490 N   0  0  0  0  0  0  0  0  0  0  0  0
   20.4140   55.1700   34.0280 F   0  0  0  0  0  0  0  0  0  0  0  0
   18.5350   54.1190   33.4660 F   0  0  0  0  0  0  0  0  0  0  0  0
   19.8510   55.1310   31.8660 F   0  0  0  0  0  0  0  0  0  0  0  0
   24.3260   51.1030   34.3920 H   0  0  0  0  0  0  0  0  0  0  0  0
   24.3040   52.8400   34.1560 H   0  0  0  0  0  0  0  0  0  0  0  0
   22.5250   49.8080   32.5880 H   0  0  0  0  0  0  0  0  0  0  0  0
   20.1900   49.9380   31.8980 H   0  0  0  0  0  0  0  0  0  0  0  0
   18.9420   52.0780   32.1200 H   0  0  0  0  0  0  0  0  0  0  0  0
   22.3710   53.9160   33.6950 H   0  0  0  0  0  0  0  0  0  0  0  0
   24.9520   49.3880   33.8460 H   0  0  0  0  0  0  0  0  0  0  0  0
   26.2330   48.0960   31.2360 H   0  0  0  0  0  0  0  0  0  0  0  0
   25.4950   47.2520   32.6750 H   0  0  0  0  0  0  0  0  0  0  0  0
   27.2200   48.4060   34.2150 H   0  0  0  0  0  0  0  0  0  0  0  0
   27.9000   49.3400   32.7410 H   0  0  0  0  0  0  0  0  0  0  0  0
   27.0800   49.7920   30.8430 H   0  0  0  0  0  0  0  0  0  0  0  0
   27.3090   54.6320   27.1950 H   0  0  0  0  0  0  0  0  0  0  0  0
   28.9070   53.9560   27.5850 H   0  0  0  0  0  0  0  0  0  0  0  0
  1  2  2  0  0  0  0
  2  3  4  0  0  0  0
  2 22  4  0  0  0  0
  3  4  1  0  0  0  0
  3 12  4  0  0  0  0
  4  5  1  0  0  0  0
  4 26  1  0  0  0  0
  4 27  1  0  0  0  0
  5  6  4  0  0  0  0
  5 11  4  0  0  0  0
  6  7  4  0  0  0  0
  6 28  1  0  0  0  0
  7  8  4  0  0  0  0
  7 29  1  0  0  0  0
  8  9  4  0  0  0  0
  8 30  1  0  0  0  0
  9 10  1  0  0  0  0
  9 11  4  0  0  0  0
 10 23  1  0  0  0  0
 10 24  1  0  0  0  0
 10 25  1  0  0  0  0
 11 31  1  0  0  0  0
 12 13  1  0  0  0  0
 12 16  4  0  0  0  0
 13 14  1  0  0  0  0
 13 15  1  0  0  0  0
 13 32  1  0  0  0  0
 14 15  1  0  0  0  0
 14 33  1  0  0  0  0
 14 34  1  0  0  0  0
 15 35  1  0  0  0  0
 15 36  1  0  0  0  0
 16 17  4  0  0  0  0
 16 37  1  0  0  0  0
 17 18  4  0  0  0  0
 17 22  4  0  0  0  0
 18 19  4  0  0  0  0
 19 20  1  0  0  0  0
 19 21  4  0  0  0  0
 20 38  1  0  0  0  0
 20 39  1  0  0  0  0
 21 22  4  0  0  0  0
M  END
>  <pdb_header>


$$$$
