ligand_1
  PyMOL2.5          3D                             0

 34 37  0  0  0  0  0  0  0  0999 V2000
   24.3280   54.0340   31.6550 O   0  0  0  0  0  0  0  0  0  0  0  0
   25.0130   52.9900   31.5950 C   0  0  0  0  0  0  0  0  0  0  0  0
   24.8620   51.9130   32.4370 C   0  0  0  0  0  0  0  0  0  0  0  0
   23.8650   51.9360   33.4990 C   0  0  0  0  0  0  0  0  0  0  0  0
   22.4580   51.8590   33.0710 C   0  0  0  0  0  0  0  0  0  0  0  0
   21.7920   50.7160   32.7080 C   0  0  0  0  0  0  0  0  0  0  0  0
   20.4610   50.8280   32.3450 C   0  0  0  0  0  0  0  0  0  0  0  0
   19.7700   52.0110   32.3260 C   0  0  0  0  0  0  0  0  0  0  0  0
   20.4300   53.1670   32.6900 C   0  0  0  0  0  0  0  0  0  0  0  0
   21.7530   53.0740   33.0540 C   0  0  0  0  0  0  0  0  0  0  0  0
   25.6700   50.8060   32.2890 C   0  0  0  0  0  0  0  0  0  0  0  0
   25.5220   49.6890   33.2040 C   0  0  0  0  0  0  0  0  0  0  0  0
   26.5090   48.5590   33.0970 C   0  0  0  0  0  0  0  0  0  0  0  0
   26.4320   49.4710   34.3550 C   0  0  0  0  0  0  0  0  0  0  0  0
   26.6000   50.7880   31.3200 N   0  0  0  0  0  0  0  0  0  0  0  0
   26.7430   51.8660   30.4860 C   0  0  0  0  0  0  0  0  0  0  0  0
   27.6070   52.0480   29.4620 N   0  0  0  0  0  0  0  0  0  0  0  0
   27.3290   53.2750   28.9770 C   0  0  0  0  0  0  0  0  0  0  0  0
   26.3280   53.8140   29.6890 N   0  0  0  0  0  0  0  0  0  0  0  0
   25.9670   52.9460   30.6180 N   0  0  0  0  0  0  0  0  0  0  0  0
   19.5670   54.6890   32.6750 Cl  0  0  0  0  0  0  0  0  0  0  0  0
   24.0030   51.1160   34.2450 H   0  0  0  0  0  0  0  0  0  0  0  0
   24.0020   52.8740   34.0800 H   0  0  0  0  0  0  0  0  0  0  0  0
   22.3080   49.7760   32.7130 H   0  0  0  0  0  0  0  0  0  0  0  0
   19.9590   49.9210   32.0650 H   0  0  0  0  0  0  0  0  0  0  0  0
   18.7250   52.0300   32.0300 H   0  0  0  0  0  0  0  0  0  0  0  0
   22.2210   54.0110   33.3390 H   0  0  0  0  0  0  0  0  0  0  0  0
   24.4770   49.3440   33.3550 H   0  0  0  0  0  0  0  0  0  0  0  0
   27.4320   48.6170   32.5180 H   0  0  0  0  0  0  0  0  0  0  0  0
   26.1320   47.5120   33.3120 H   0  0  0  0  0  0  0  0  0  0  0  0
   27.3380   50.0720   34.5150 H   0  0  0  0  0  0  0  0  0  0  0  0
   25.9990   49.0350   35.2660 H   0  0  0  0  0  0  0  0  0  0  0  0
   27.2460   49.9920   31.1380 H   0  0  0  0  0  0  0  0  0  0  0  0
   27.8410   53.7270   28.1530 H   0  0  0  0  0  0  0  0  0  0  0  0
  1  2  2  0  0  0  0
  2  3  4  0  0  0  0
  2 20  4  0  0  0  0
  3  4  1  0  0  0  0
  3 11  4  0  0  0  0
  4  5  1  0  0  0  0
  4 22  1  0  0  0  0
  4 23  1  0  0  0  0
  5  6  4  0  0  0  0
  5 10  4  0  0  0  0
  6  7  4  0  0  0  0
  6 24  1  0  0  0  0
  7  8  4  0  0  0  0
  7 25  1  0  0  0  0
  8  9  4  0  0  0  0
  8 26  1  0  0  0  0
  9 10  4  0  0  0  0
  9 21  1  0  0  0  0
 10 27  1  0  0  0  0
 11 12  1  0  0  0  0
 11 15  4  0  0  0  0
 12 13  1  0  0  0  0
 12 14  1  0  0  0  0
 12 28  1  0  0  0  0
 13 14  1  0  0  0  0
 13 29  1  0  0  0  0
 13 30  1  0  0  0  0
 14 31  1  0  0  0  0
 14 32  1  0  0  0  0
 15 16  4  0  0  0  0
 15 33  1  0  0  0  0
 16 17  4  0  0  0  0
 16 20  4  0  0  0  0
 17 18  4  0  0  0  0
 18 19  4  0  0  0  0
 18 34  1  0  0  0  0
 19 20  4  0  0  0  0
M  END
>  <pdb_header>


$$$$
