ligand_8
  PyMOL2.5          3D                             0

 36 39  0  0  0  0  0  0  0  0999 V2000
   24.2610   53.9760   31.8070 O   0  0  0  0  0  0  0  0  0  0  0  0
   25.0030   52.9560   31.6710 C   0  0  0  0  0  0  0  0  0  0  0  0
   24.8920   51.9260   32.5420 C   0  0  0  0  0  0  0  0  0  0  0  0
   23.9660   51.9820   33.6790 C   0  0  0  0  0  0  0  0  0  0  0  0
   22.5400   51.9690   33.1510 C   0  0  0  0  0  0  0  0  0  0  0  0
   21.9080   53.1940   33.0260 C   0  0  0  0  0  0  0  0  0  0  0  0
   20.6530   53.2630   32.4350 C   0  0  0  0  0  0  0  0  0  0  0  0
   20.0540   52.1020   31.9880 C   0  0  0  0  0  0  0  0  0  0  0  0
   20.6990   50.8860   32.1290 C   0  0  0  0  0  0  0  0  0  0  0  0
   21.9620   50.7970   32.7160 C   0  0  0  0  0  0  0  0  0  0  0  0
   25.7200   50.8060   32.3810 C   0  0  0  0  0  0  0  0  0  0  0  0
   25.4910   49.6640   33.2660 C   0  0  0  0  0  0  0  0  0  0  0  0
   26.2680   49.1890   34.4340 C   0  0  0  0  0  0  0  0  0  0  0  0
   26.7940   48.7290   33.1260 C   0  0  0  0  0  0  0  0  0  0  0  0
   26.6130   50.7570   31.3700 N   0  0  0  0  0  0  0  0  0  0  0  0
   26.6920   51.8380   30.4990 C   0  0  0  0  0  0  0  0  0  0  0  0
   27.4460   52.0550   29.4120 N   0  0  0  0  0  0  0  0  0  0  0  0
   27.1120   53.2510   28.9020 C   0  0  0  0  0  0  0  0  0  0  0  0
   27.6580   53.8510   27.7340 N   0  0  0  0  0  0  0  0  0  0  0  0
   26.1410   53.7620   29.6990 N   0  0  0  0  0  0  0  0  0  0  0  0
   25.8970   52.9080   30.6570 N   0  0  0  0  0  0  0  0  0  0  0  0
   19.8810   49.2840   31.5270 Br  0  0  0  0  0  0  0  0  0  0  0  0
   24.0320   51.0960   34.3300 H   0  0  0  0  0  0  0  0  0  0  0  0
   24.1000   52.8700   34.3420 H   0  0  0  0  0  0  0  0  0  0  0  0
   22.3230   54.1330   33.4000 H   0  0  0  0  0  0  0  0  0  0  0  0
   20.1730   54.2300   32.3370 H   0  0  0  0  0  0  0  0  0  0  0  0
   19.0760   52.1550   31.5310 H   0  0  0  0  0  0  0  0  0  0  0  0
   22.4830   49.8470   32.8460 H   0  0  0  0  0  0  0  0  0  0  0  0
   24.6290   49.0190   32.9650 H   0  0  0  0  0  0  0  0  0  0  0  0
   26.8920   49.9110   35.0040 H   0  0  0  0  0  0  0  0  0  0  0  0
   25.7210   48.4740   35.1150 H   0  0  0  0  0  0  0  0  0  0  0  0
   27.7270   49.2380   32.7720 H   0  0  0  0  0  0  0  0  0  0  0  0
   26.6460   47.7120   32.7880 H   0  0  0  0  0  0  0  0  0  0  0  0
   27.2360   49.9550   31.1700 H   0  0  0  0  0  0  0  0  0  0  0  0
   27.0010   54.4850   27.1910 H   0  0  0  0  0  0  0  0  0  0  0  0
   28.6080   53.7100   27.3860 H   0  0  0  0  0  0  0  0  0  0  0  0
  1  2  2  0  0  0  0
  2  3  4  0  0  0  0
  2 21  4  0  0  0  0
  3  4  1  0  0  0  0
  3 11  4  0  0  0  0
  4  5  1  0  0  0  0
  4 23  1  0  0  0  0
  4 24  1  0  0  0  0
  5  6  4  0  0  0  0
  5 10  4  0  0  0  0
  6  7  4  0  0  0  0
  6 25  1  0  0  0  0
  7  8  4  0  0  0  0
  7 26  1  0  0  0  0
  8  9  4  0  0  0  0
  8 27  1  0  0  0  0
  9 10  4  0  0  0  0
  9 22  1  0  0  0  0
 10 28  1  0  0  0  0
 11 12  1  0  0  0  0
 11 15  4  0  0  0  0
 12 13  1  0  0  0  0
 12 14  1  0  0  0  0
 12 29  1  0  0  0  0
 13 14  1  0  0  0  0
 13 30  1  0  0  0  0
 13 31  1  0  0  0  0
 14 32  1  0  0  0  0
 14 33  1  0  0  0  0
 15 16  4  0  0  0  0
 15 34  1  0  0  0  0
 16 17  4  0  0  0  0
 16 21  4  0  0  0  0
 17 18  4  0  0  0  0
 18 19  1  0  0  0  0
 18 20  4  0  0  0  0
 19 35  1  0  0  0  0
 19 36  1  0  0  0  0
 20 21  4  0  0  0  0
M  END
>  <pdb_header>


$$$$
