ligand_9
  PyMOL2.5          3D                             0

 40 43  0  0  0  0  0  0  0  0999 V2000
   25.0410   53.0260   31.5940 C   0  0  0  0  0  0  0  0  0  0  0  0
   26.5370   50.7660   31.3150 N   0  0  0  0  0  0  0  0  0  0  0  0
   24.3570   54.0720   31.7150 O   0  0  0  0  0  0  0  0  0  0  0  0
   24.8700   51.9340   32.4420 C   0  0  0  0  0  0  0  0  0  0  0  0
   27.5240   52.0570   29.4380 N   0  0  0  0  0  0  0  0  0  0  0  0
   20.0260   49.3860   31.9420 O   0  0  0  0  0  0  0  0  0  0  0  0
   23.8940   51.9840   33.5270 C   0  0  0  0  0  0  0  0  0  0  0  0
   27.9730   53.8910   27.8190 N   0  0  0  0  0  0  0  0  0  0  0  0
   22.4750   51.9170   33.1140 C   0  0  0  0  0  0  0  0  0  0  0  0
   26.3220   53.8230   29.6930 N   0  0  0  0  0  0  0  0  0  0  0  0
   21.6620   53.0210   33.0300 C   0  0  0  0  0  0  0  0  0  0  0  0
   25.9690   52.9400   30.6240 N   0  0  0  0  0  0  0  0  0  0  0  0
   20.3340   52.9400   32.5980 C   0  0  0  0  0  0  0  0  0  0  0  0
   19.7990   51.7250   32.2390 C   0  0  0  0  0  0  0  0  0  0  0  0
   20.5910   50.6010   32.3130 C   0  0  0  0  0  0  0  0  0  0  0  0
   20.8020   48.2660   31.6010 C   0  0  0  0  0  0  0  0  0  0  0  0
   21.8840   50.7040   32.7380 C   0  0  0  0  0  0  0  0  0  0  0  0
   25.6350   50.7710   32.3040 C   0  0  0  0  0  0  0  0  0  0  0  0
   25.4810   49.5880   33.1790 C   0  0  0  0  0  0  0  0  0  0  0  0
   26.5900   48.5550   33.1700 C   0  0  0  0  0  0  0  0  0  0  0  0
   26.3770   49.4550   34.3670 C   0  0  0  0  0  0  0  0  0  0  0  0
   26.7070   51.8320   30.4820 C   0  0  0  0  0  0  0  0  0  0  0  0
   27.2940   53.2900   28.9400 C   0  0  0  0  0  0  0  0  0  0  0  0
   24.0540   52.9120   34.1380 H   0  0  0  0  0  0  0  0  0  0  0  0
   24.0730   51.1580   34.2740 H   0  0  0  0  0  0  0  0  0  0  0  0
   21.9990   53.9970   33.2960 H   0  0  0  0  0  0  0  0  0  0  0  0
   19.6990   53.8080   32.5340 H   0  0  0  0  0  0  0  0  0  0  0  0
   18.7560   51.6850   31.9060 H   0  0  0  0  0  0  0  0  0  0  0  0
   20.2100   47.3200   31.6520 H   0  0  0  0  0  0  0  0  0  0  0  0
   21.6080   48.1260   32.3580 H   0  0  0  0  0  0  0  0  0  0  0  0
   21.3100   48.3880   30.6270 H   0  0  0  0  0  0  0  0  0  0  0  0
   22.4970   49.8020   32.7910 H   0  0  0  0  0  0  0  0  0  0  0  0
   24.4620   49.1530   33.3160 H   0  0  0  0  0  0  0  0  0  0  0  0
   26.3520   47.4780   33.2810 H   0  0  0  0  0  0  0  0  0  0  0  0
   27.5410   48.7310   32.6650 H   0  0  0  0  0  0  0  0  0  0  0  0
   26.0620   48.9220   35.2830 H   0  0  0  0  0  0  0  0  0  0  0  0
   27.0600   50.2990   34.5710 H   0  0  0  0  0  0  0  0  0  0  0  0
   27.1590   49.9370   31.1250 H   0  0  0  0  0  0  0  0  0  0  0  0
   28.0240   54.9270   27.7950 H   0  0  0  0  0  0  0  0  0  0  0  0
   28.4000   53.3550   27.0570 H   0  0  0  0  0  0  0  0  0  0  0  0
  1  3  2  0  0  0  0
  1  4  4  0  0  0  0
  1 12  4  0  0  0  0
  2 18  4  0  0  0  0
  2 22  4  0  0  0  0
  2 38  1  0  0  0  0
  4  7  1  0  0  0  0
  4 18  4  0  0  0  0
  5 22  4  0  0  0  0
  5 23  4  0  0  0  0
  6 15  1  0  0  0  0
  6 16  1  0  0  0  0
  7  9  1  0  0  0  0
  7 24  1  0  0  0  0
  7 25  1  0  0  0  0
  8 23  1  0  0  0  0
  8 39  1  0  0  0  0
  8 40  1  0  0  0  0
  9 11  4  0  0  0  0
  9 17  4  0  0  0  0
 10 12  4  0  0  0  0
 10 23  4  0  0  0  0
 11 13  4  0  0  0  0
 11 26  1  0  0  0  0
 12 22  4  0  0  0  0
 13 14  4  0  0  0  0
 13 27  1  0  0  0  0
 14 15  4  0  0  0  0
 14 28  1  0  0  0  0
 15 17  4  0  0  0  0
 16 29  1  0  0  0  0
 16 30  1  0  0  0  0
 16 31  1  0  0  0  0
 17 32  1  0  0  0  0
 18 19  1  0  0  0  0
 19 20  1  0  0  0  0
 19 21  1  0  0  0  0
 19 33  1  0  0  0  0
 20 21  1  0  0  0  0
 20 34  1  0  0  0  0
 20 35  1  0  0  0  0
 21 36  1  0  0  0  0
 21 37  1  0  0  0  0
M  END
>  <pdb_header>


$$$$
