ligand_4
  PyMOL2.5          3D                             0

 36 39  0  0  0  0  0  0  0  0999 V2000
   24.3550   54.0770   31.7150 O   0  0  0  0  0  0  0  0  0  0  0  0
   25.0420   53.0080   31.6280 C   0  0  0  0  0  0  0  0  0  0  0  0
   24.8770   51.9510   32.4870 C   0  0  0  0  0  0  0  0  0  0  0  0
   23.8760   52.0660   33.5540 C   0  0  0  0  0  0  0  0  0  0  0  0
   22.4680   51.9980   33.1080 C   0  0  0  0  0  0  0  0  0  0  0  0
   21.6770   53.1360   32.9550 C   0  0  0  0  0  0  0  0  0  0  0  0
   20.3710   53.1140   32.5350 C   0  0  0  0  0  0  0  0  0  0  0  0
   19.7800   51.9050   32.2420 C   0  0  0  0  0  0  0  0  0  0  0  0
   20.5120   50.7480   32.3750 C   0  0  0  0  0  0  0  0  0  0  0  0
   21.8430   50.8110   32.8050 C   0  0  0  0  0  0  0  0  0  0  0  0
   25.6730   50.8070   32.3270 C   0  0  0  0  0  0  0  0  0  0  0  0
   25.5150   49.6910   33.2620 C   0  0  0  0  0  0  0  0  0  0  0  0
   26.4210   48.4920   33.0850 C   0  0  0  0  0  0  0  0  0  0  0  0
   26.5640   49.4240   34.2850 C   0  0  0  0  0  0  0  0  0  0  0  0
   26.5680   50.8010   31.3270 N   0  0  0  0  0  0  0  0  0  0  0  0
   26.7260   51.8430   30.4840 C   0  0  0  0  0  0  0  0  0  0  0  0
   27.5560   52.0440   29.4270 N   0  0  0  0  0  0  0  0  0  0  0  0
   27.2980   53.2510   28.9450 C   0  0  0  0  0  0  0  0  0  0  0  0
   27.9800   53.8210   27.8170 N   0  0  0  0  0  0  0  0  0  0  0  0
   26.3240   53.7930   29.6910 N   0  0  0  0  0  0  0  0  0  0  0  0
   25.9660   52.9370   30.6370 N   0  0  0  0  0  0  0  0  0  0  0  0
   24.0150   53.0890   34.0120 H   0  0  0  0  0  0  0  0  0  0  0  0
   23.9980   51.3220   34.3620 H   0  0  0  0  0  0  0  0  0  0  0  0
   22.0850   54.1110   33.1780 H   0  0  0  0  0  0  0  0  0  0  0  0
   19.7920   54.0430   32.4310 H   0  0  0  0  0  0  0  0  0  0  0  0
   18.7360   51.8990   31.9080 H   0  0  0  0  0  0  0  0  0  0  0  0
   20.0410   49.7890   32.1410 H   0  0  0  0  0  0  0  0  0  0  0  0
   22.3250   49.8490   32.8750 H   0  0  0  0  0  0  0  0  0  0  0  0
   24.4910   49.3950   33.6060 H   0  0  0  0  0  0  0  0  0  0  0  0
   26.0090   47.4760   33.2690 H   0  0  0  0  0  0  0  0  0  0  0  0
   27.3080   48.5100   32.4530 H   0  0  0  0  0  0  0  0  0  0  0  0
   26.2920   48.9540   35.2380 H   0  0  0  0  0  0  0  0  0  0  0  0
   27.4560   50.0760   34.3640 H   0  0  0  0  0  0  0  0  0  0  0  0
   27.1980   49.9880   31.1380 H   0  0  0  0  0  0  0  0  0  0  0  0
   27.8560   53.4450   26.8520 H   0  0  0  0  0  0  0  0  0  0  0  0
   28.6210   54.6330   27.9420 H   0  0  0  0  0  0  0  0  0  0  0  0
  1  2  2  0  0  0  0
  2  3  4  0  0  0  0
  2 21  4  0  0  0  0
  3  4  1  0  0  0  0
  3 11  4  0  0  0  0
  4  5  1  0  0  0  0
  4 22  1  0  0  0  0
  4 23  1  0  0  0  0
  5  6  4  0  0  0  0
  5 10  4  0  0  0  0
  6  7  4  0  0  0  0
  6 24  1  0  0  0  0
  7  8  4  0  0  0  0
  7 25  1  0  0  0  0
  8  9  4  0  0  0  0
  8 26  1  0  0  0  0
  9 10  4  0  0  0  0
  9 27  1  0  0  0  0
 10 28  1  0  0  0  0
 11 12  1  0  0  0  0
 11 15  4  0  0  0  0
 12 13  1  0  0  0  0
 12 14  1  0  0  0  0
 12 29  1  0  0  0  0
 13 14  1  0  0  0  0
 13 30  1  0  0  0  0
 13 31  1  0  0  0  0
 14 32  1  0  0  0  0
 14 33  1  0  0  0  0
 15 16  4  0  0  0  0
 15 34  1  0  0  0  0
 16 17  4  0  0  0  0
 16 21  4  0  0  0  0
 17 18  4  0  0  0  0
 18 19  1  0  0  0  0
 18 20  4  0  0  0  0
 19 35  1  0  0  0  0
 19 36  1  0  0  0  0
 20 21  4  0  0  0  0
M  END
>  <pdb_header>


$$$$
