ligand_12
  PyMOL2.5          3D                             0

 40 43  0  0  0  0  0  0  0  0999 V2000
   25.1330   52.9410   31.6710 C   0  0  0  0  0  0  0  0  0  0  0  0
   26.4750   50.7090   31.1140 N   0  0  0  0  0  0  0  0  0  0  0  0
   24.5300   54.0400   31.8750 O   0  0  0  0  0  0  0  0  0  0  0  0
   24.9380   51.8160   32.4380 C   0  0  0  0  0  0  0  0  0  0  0  0
   27.4460   52.0850   29.2920 N   0  0  0  0  0  0  0  0  0  0  0  0
   18.5720   51.8320   31.7920 O   0  0  0  0  0  0  0  0  0  0  0  0
   23.9680   51.9110   33.5500 C   0  0  0  0  0  0  0  0  0  0  0  0
   27.8950   54.0320   27.8230 N   0  0  0  0  0  0  0  0  0  0  0  0
   22.5470   51.8900   33.0930 C   0  0  0  0  0  0  0  0  0  0  0  0
   26.3500   53.8640   29.7660 N   0  0  0  0  0  0  0  0  0  0  0  0
   21.8360   53.0690   33.0790 C   0  0  0  0  0  0  0  0  0  0  0  0
   25.9880   52.9460   30.6390 N   0  0  0  0  0  0  0  0  0  0  0  0
   20.5080   53.0270   32.6400 C   0  0  0  0  0  0  0  0  0  0  0  0
   19.8710   51.8870   32.2230 C   0  0  0  0  0  0  0  0  0  0  0  0
   18.1900   51.5370   30.4970 C   0  0  0  0  0  0  0  0  0  0  0  0
   20.6330   50.6970   32.2520 C   0  0  0  0  0  0  0  0  0  0  0  0
   21.9360   50.7300   32.6810 C   0  0  0  0  0  0  0  0  0  0  0  0
   25.6380   50.6500   32.1500 C   0  0  0  0  0  0  0  0  0  0  0  0
   25.4600   49.4220   32.9790 C   0  0  0  0  0  0  0  0  0  0  0  0
   26.0160   48.1250   32.4880 C   0  0  0  0  0  0  0  0  0  0  0  0
   26.6770   48.8440   33.6130 C   0  0  0  0  0  0  0  0  0  0  0  0
   26.6720   51.8100   30.3550 C   0  0  0  0  0  0  0  0  0  0  0  0
   27.2500   53.3740   28.9140 C   0  0  0  0  0  0  0  0  0  0  0  0
   24.0890   51.1820   34.3490 H   0  0  0  0  0  0  0  0  0  0  0  0
   24.1800   52.9210   34.0310 H   0  0  0  0  0  0  0  0  0  0  0  0
   22.2700   54.0240   33.3990 H   0  0  0  0  0  0  0  0  0  0  0  0
   20.0050   54.0050   32.6580 H   0  0  0  0  0  0  0  0  0  0  0  0
   19.0460   51.3570   29.8360 H   0  0  0  0  0  0  0  0  0  0  0  0
   17.5460   50.6210   30.4300 H   0  0  0  0  0  0  0  0  0  0  0  0
   17.6410   52.4070   30.0170 H   0  0  0  0  0  0  0  0  0  0  0  0
   20.1550   49.7870   31.9290 H   0  0  0  0  0  0  0  0  0  0  0  0
   22.4620   49.7640   32.6700 H   0  0  0  0  0  0  0  0  0  0  0  0
   24.5760   49.4210   33.6480 H   0  0  0  0  0  0  0  0  0  0  0  0
   25.4140   47.1980   32.7190 H   0  0  0  0  0  0  0  0  0  0  0  0
   26.5460   48.0870   31.5260 H   0  0  0  0  0  0  0  0  0  0  0  0
   26.5930   48.3520   34.6040 H   0  0  0  0  0  0  0  0  0  0  0  0
   27.6940   49.2310   33.4270 H   0  0  0  0  0  0  0  0  0  0  0  0
   27.0360   49.8840   30.8360 H   0  0  0  0  0  0  0  0  0  0  0  0
   28.7550   53.6360   27.4230 H   0  0  0  0  0  0  0  0  0  0  0  0
   27.4990   54.9010   27.4330 H   0  0  0  0  0  0  0  0  0  0  0  0
  1  3  2  0  0  0  0
  1  4  4  0  0  0  0
  1 12  4  0  0  0  0
  2 18  4  0  0  0  0
  2 22  4  0  0  0  0
  2 38  1  0  0  0  0
  4  7  1  0  0  0  0
  4 18  4  0  0  0  0
  5 22  4  0  0  0  0
  5 23  4  0  0  0  0
  6 14  1  0  0  0  0
  6 15  1  0  0  0  0
  7  9  1  0  0  0  0
  7 24  1  0  0  0  0
  7 25  1  0  0  0  0
  8 23  1  0  0  0  0
  8 39  1  0  0  0  0
  8 40  1  0  0  0  0
  9 11  4  0  0  0  0
  9 17  4  0  0  0  0
 10 12  4  0  0  0  0
 10 23  4  0  0  0  0
 11 13  4  0  0  0  0
 11 26  1  0  0  0  0
 12 22  4  0  0  0  0
 13 14  4  0  0  0  0
 13 27  1  0  0  0  0
 14 16  4  0  0  0  0
 15 28  1  0  0  0  0
 15 29  1  0  0  0  0
 15 30  1  0  0  0  0
 16 17  4  0  0  0  0
 16 31  1  0  0  0  0
 17 32  1  0  0  0  0
 18 19  1  0  0  0  0
 19 20  1  0  0  0  0
 19 21  1  0  0  0  0
 19 33  1  0  0  0  0
 20 21  1  0  0  0  0
 20 34  1  0  0  0  0
 20 35  1  0  0  0  0
 21 36  1  0  0  0  0
 21 37  1  0  0  0  0
M  END
>  <pdb_header>


$$$$
