ligand_7
  PyMOL2.5          3D                             0

 39 42  0  0  0  0  0  0  0  0999 V2000
   24.3020   53.9970   31.7380 O   0  0  0  0  0  0  0  0  0  0  0  0
   25.0090   52.9800   31.5910 C   0  0  0  0  0  0  0  0  0  0  0  0
   24.8200   51.8980   32.4060 C   0  0  0  0  0  0  0  0  0  0  0  0
   23.8590   51.8980   33.4900 C   0  0  0  0  0  0  0  0  0  0  0  0
   22.4360   51.8240   33.2040 C   0  0  0  0  0  0  0  0  0  0  0  0
   21.7760   50.6430   32.9980 C   0  0  0  0  0  0  0  0  0  0  0  0
   20.4000   50.5480   32.7560 C   0  0  0  0  0  0  0  0  0  0  0  0
   19.6980   51.7320   32.7290 C   0  0  0  0  0  0  0  0  0  0  0  0
   20.3170   52.9450   32.9300 C   0  0  0  0  0  0  0  0  0  0  0  0
   19.4860   54.1830   32.8940 C   0  0  0  0  0  0  0  0  0  0  0  0
   21.6740   52.9810   33.1650 C   0  0  0  0  0  0  0  0  0  0  0  0
   25.6560   50.7990   32.1760 C   0  0  0  0  0  0  0  0  0  0  0  0
   25.4820   49.6090   33.0140 C   0  0  0  0  0  0  0  0  0  0  0  0
   26.5300   48.5500   33.0670 C   0  0  0  0  0  0  0  0  0  0  0  0
   26.1320   49.3470   34.2910 C   0  0  0  0  0  0  0  0  0  0  0  0
   26.5890   50.7950   31.2200 N   0  0  0  0  0  0  0  0  0  0  0  0
   26.7410   51.8910   30.4350 C   0  0  0  0  0  0  0  0  0  0  0  0
   27.5850   52.1540   29.4240 N   0  0  0  0  0  0  0  0  0  0  0  0
   27.3000   53.3990   29.0080 C   0  0  0  0  0  0  0  0  0  0  0  0
   28.0050   54.0210   27.9390 N   0  0  0  0  0  0  0  0  0  0  0  0
   26.2980   53.8810   29.7570 N   0  0  0  0  0  0  0  0  0  0  0  0
   25.9690   52.9620   30.6140 N   0  0  0  0  0  0  0  0  0  0  0  0
   24.0730   52.8340   34.1130 H   0  0  0  0  0  0  0  0  0  0  0  0
   24.1640   51.0840   34.2340 H   0  0  0  0  0  0  0  0  0  0  0  0
   22.2620   49.6800   33.0150 H   0  0  0  0  0  0  0  0  0  0  0  0
   19.9170   49.5740   32.5990 H   0  0  0  0  0  0  0  0  0  0  0  0
   18.6170   51.6770   32.5420 H   0  0  0  0  0  0  0  0  0  0  0  0
   20.1070   55.0760   33.1490 H   0  0  0  0  0  0  0  0  0  0  0  0
   18.6740   54.1550   33.6810 H   0  0  0  0  0  0  0  0  0  0  0  0
   18.9860   54.3350   31.9270 H   0  0  0  0  0  0  0  0  0  0  0  0
   22.1330   53.9740   33.3300 H   0  0  0  0  0  0  0  0  0  0  0  0
   24.4540   49.1530   32.8560 H   0  0  0  0  0  0  0  0  0  0  0  0
   26.2530   47.4780   33.0130 H   0  0  0  0  0  0  0  0  0  0  0  0
   27.5580   48.7340   32.6540 H   0  0  0  0  0  0  0  0  0  0  0  0
   26.9160   49.9880   34.7100 H   0  0  0  0  0  0  0  0  0  0  0  0
   25.5460   48.8080   35.0860 H   0  0  0  0  0  0  0  0  0  0  0  0
   27.2120   49.9510   31.0610 H   0  0  0  0  0  0  0  0  0  0  0  0
   28.9170   53.6640   27.5940 H   0  0  0  0  0  0  0  0  0  0  0  0
   27.6550   54.8760   27.4330 H   0  0  0  0  0  0  0  0  0  0  0  0
  1  2  2  0  0  0  0
  2  3  4  0  0  0  0
  2 22  4  0  0  0  0
  3  4  1  0  0  0  0
  3 12  4  0  0  0  0
  4  5  1  0  0  0  0
  4 23  1  0  0  0  0
  4 24  1  0  0  0  0
  5  6  4  0  0  0  0
  5 11  4  0  0  0  0
  6  7  4  0  0  0  0
  6 25  1  0  0  0  0
  7  8  4  0  0  0  0
  7 26  1  0  0  0  0
  8  9  4  0  0  0  0
  8 27  1  0  0  0  0
  9 10  1  0  0  0  0
  9 11  4  0  0  0  0
 10 28  1  0  0  0  0
 10 29  1  0  0  0  0
 10 30  1  0  0  0  0
 11 31  1  0  0  0  0
 12 13  1  0  0  0  0
 12 16  4  0  0  0  0
 13 14  1  0  0  0  0
 13 15  1  0  0  0  0
 13 32  1  0  0  0  0
 14 15  1  0  0  0  0
 14 33  1  0  0  0  0
 14 34  1  0  0  0  0
 15 35  1  0  0  0  0
 15 36  1  0  0  0  0
 16 17  4  0  0  0  0
 16 37  1  0  0  0  0
 17 18  4  0  0  0  0
 17 22  4  0  0  0  0
 18 19  4  0  0  0  0
 19 20  1  0  0  0  0
 19 21  4  0  0  0  0
 20 38  1  0  0  0  0
 20 39  1  0  0  0  0
 21 22  4  0  0  0  0
M  END
>  <pdb_header>


$$$$
