ligand_11
  PyMOL2.5          3D                             0

 36 39  0  0  0  0  0  0  0  0999 V2000
   24.5100   54.2550   31.7050 O   0  0  0  0  0  0  0  0  0  0  0  0
   25.0990   53.1450   31.6320 C   0  0  0  0  0  0  0  0  0  0  0  0
   24.8920   52.1570   32.5320 C   0  0  0  0  0  0  0  0  0  0  0  0
   23.9550   52.2760   33.6590 C   0  0  0  0  0  0  0  0  0  0  0  0
   22.5440   52.0370   33.1950 C   0  0  0  0  0  0  0  0  0  0  0  0
   22.2670   51.5550   31.9350 C   0  0  0  0  0  0  0  0  0  0  0  0
   20.9850   51.2840   31.5530 C   0  0  0  0  0  0  0  0  0  0  0  0
   19.9400   51.4910   32.4330 C   0  0  0  0  0  0  0  0  0  0  0  0
   20.2170   51.9700   33.6810 C   0  0  0  0  0  0  0  0  0  0  0  0
   21.5050   52.2500   34.0820 C   0  0  0  0  0  0  0  0  0  0  0  0
   25.5780   50.9460   32.4010 C   0  0  0  0  0  0  0  0  0  0  0  0
   25.2850   49.8500   33.3580 C   0  0  0  0  0  0  0  0  0  0  0  0
   26.1650   49.4610   34.4910 C   0  0  0  0  0  0  0  0  0  0  0  0
   26.4440   48.7810   33.2060 C   0  0  0  0  0  0  0  0  0  0  0  0
   26.4140   50.8110   31.3810 N   0  0  0  0  0  0  0  0  0  0  0  0
   26.6220   51.8280   30.4690 C   0  0  0  0  0  0  0  0  0  0  0  0
   27.4200   51.8460   29.4010 N   0  0  0  0  0  0  0  0  0  0  0  0
   27.2650   53.0550   28.8390 C   0  0  0  0  0  0  0  0  0  0  0  0
   27.9050   53.5740   27.6450 N   0  0  0  0  0  0  0  0  0  0  0  0
   26.3740   53.7150   29.6000 N   0  0  0  0  0  0  0  0  0  0  0  0
   25.9720   52.9670   30.6060 N   0  0  0  0  0  0  0  0  0  0  0  0
   18.1370   51.0910   31.9310 Br  0  0  0  0  0  0  0  0  0  0  0  0
   24.1600   51.5720   34.5070 H   0  0  0  0  0  0  0  0  0  0  0  0
   23.9830   53.3160   34.0390 H   0  0  0  0  0  0  0  0  0  0  0  0
   23.1070   51.4050   31.2700 H   0  0  0  0  0  0  0  0  0  0  0  0
   20.7640   50.9030   30.5550 H   0  0  0  0  0  0  0  0  0  0  0  0
   19.3810   52.1310   34.3720 H   0  0  0  0  0  0  0  0  0  0  0  0
   21.6930   52.6340   35.0960 H   0  0  0  0  0  0  0  0  0  0  0  0
   24.3140   49.3630   33.2160 H   0  0  0  0  0  0  0  0  0  0  0  0
   25.6730   48.8560   35.2720 H   0  0  0  0  0  0  0  0  0  0  0  0
   26.8790   50.1970   34.9130 H   0  0  0  0  0  0  0  0  0  0  0  0
   26.1550   47.7430   33.0390 H   0  0  0  0  0  0  0  0  0  0  0  0
   27.3770   49.0690   32.7050 H   0  0  0  0  0  0  0  0  0  0  0  0
   26.9510   49.9120   31.1790 H   0  0  0  0  0  0  0  0  0  0  0  0
   27.5780   54.4720   27.2580 H   0  0  0  0  0  0  0  0  0  0  0  0
   28.6590   53.0360   27.2100 H   0  0  0  0  0  0  0  0  0  0  0  0
  1  2  2  0  0  0  0
  2  3  4  0  0  0  0
  2 21  4  0  0  0  0
  3  4  1  0  0  0  0
  3 11  4  0  0  0  0
  4  5  1  0  0  0  0
  4 23  1  0  0  0  0
  4 24  1  0  0  0  0
  5  6  4  0  0  0  0
  5 10  4  0  0  0  0
  6  7  4  0  0  0  0
  6 25  1  0  0  0  0
  7  8  4  0  0  0  0
  7 26  1  0  0  0  0
  8  9  4  0  0  0  0
  8 22  1  0  0  0  0
  9 10  4  0  0  0  0
  9 27  1  0  0  0  0
 10 28  1  0  0  0  0
 11 12  1  0  0  0  0
 11 15  4  0  0  0  0
 12 13  1  0  0  0  0
 12 14  1  0  0  0  0
 12 29  1  0  0  0  0
 13 14  1  0  0  0  0
 13 30  1  0  0  0  0
 13 31  1  0  0  0  0
 14 32  1  0  0  0  0
 14 33  1  0  0  0  0
 15 16  4  0  0  0  0
 15 34  1  0  0  0  0
 16 17  4  0  0  0  0
 16 21  4  0  0  0  0
 17 18  4  0  0  0  0
 18 19  1  0  0  0  0
 18 20  4  0  0  0  0
 19 35  1  0  0  0  0
 19 36  1  0  0  0  0
 20 21  4  0  0  0  0
M  END
>  <pdb_header>


$$$$
